# generated using pymatgen
data_SiO4
_symmetry_space_group_name_H-M   'P 1'
_cell_length_a   30.74200000
_cell_length_b   30.74200000
_cell_length_c   30.74200000
_cell_angle_alpha   90.00000000
_cell_angle_beta   90.00000000
_cell_angle_gamma   90.00000000
_symmetry_Int_Tables_number   1
_chemical_formula_structural   SiO4
_chemical_formula_sum   'Si1 O4'
_cell_volume   29053.35927849
_cell_formula_units_Z   1
loop_
 _symmetry_equiv_pos_site_id
 _symmetry_equiv_pos_as_xyz
  1  'x, y, z'
loop_
 _atom_site_type_symbol
 _atom_site_label
 _atom_site_symmetry_multiplicity
 _atom_site_fract_x
 _atom_site_fract_y
 _atom_site_fract_z
 _atom_site_occupancy
  Si  Si0  1  0.89070000  0.74990000  0.82010000  1
  O  O1  1  0.93090000  0.76660000  0.84920000  1
  O  O2  1  0.87470000  0.78880000  0.78880000  1
  O  O3  1  0.90580000  0.70920000  0.79080000  1
  O  O4  1  0.85130000  0.73530000  0.85130000  1
