# generated using pymatgen
data_O2
_symmetry_space_group_name_H-M   'P 1'
_cell_length_a   9.80700000
_cell_length_b   23.64600000
_cell_length_c   20.24200000
_cell_angle_alpha   90.00000000
_cell_angle_beta   90.00000000
_cell_angle_gamma   90.00000000
_symmetry_Int_Tables_number   1
_chemical_formula_structural   O2
_chemical_formula_sum   O160
_cell_volume   4694.04534992
_cell_formula_units_Z   80
loop_
 _symmetry_equiv_pos_site_id
 _symmetry_equiv_pos_as_xyz
  1  'x, y, z'
loop_
 _atom_site_type_symbol
 _atom_site_label
 _atom_site_symmetry_multiplicity
 _atom_site_fract_x
 _atom_site_fract_y
 _atom_site_fract_z
 _atom_site_occupancy
  O  O0  1  0.63420000  0.36070000  0.34500000  1
  O  O1  1  0.13420000  0.86070000  0.34500000  1
  O  O2  1  0.36580000  0.36070000  0.34500000  1
  O  O3  1  0.86580000  0.86070000  0.34500000  1
  O  O4  1  0.63420000  0.63930000  0.84500000  1
  O  O5  1  0.13420000  0.13930000  0.84500000  1
  O  O6  1  0.36580000  0.63930000  0.84500000  1
  O  O7  1  0.86580000  0.13930000  0.84500000  1
  O  O8  1  0.36580000  0.63930000  0.65500000  1
  O  O9  1  0.86580000  0.13930000  0.65500000  1
  O  O10  1  0.63420000  0.63930000  0.65500000  1
  O  O11  1  0.13420000  0.13930000  0.65500000  1
  O  O12  1  0.36580000  0.36070000  0.15500000  1
  O  O13  1  0.86580000  0.86070000  0.15500000  1
  O  O14  1  0.63420000  0.36070000  0.15500000  1
  O  O15  1  0.13420000  0.86070000  0.15500000  1
  O  O16  1  0.86590000  0.30490000  0.34300000  1
  O  O17  1  0.36590000  0.80490000  0.34300000  1
  O  O18  1  0.13410000  0.30490000  0.34300000  1
  O  O19  1  0.63410000  0.80490000  0.34300000  1
  O  O20  1  0.86590000  0.69510000  0.84300000  1
  O  O21  1  0.36590000  0.19510000  0.84300000  1
  O  O22  1  0.13410000  0.69510000  0.84300000  1
  O  O23  1  0.63410000  0.19510000  0.84300000  1
  O  O24  1  0.13410000  0.69510000  0.65700000  1
  O  O25  1  0.63410000  0.19510000  0.65700000  1
  O  O26  1  0.86590000  0.69510000  0.65700000  1
  O  O27  1  0.36590000  0.19510000  0.65700000  1
  O  O28  1  0.13410000  0.30490000  0.15700000  1
  O  O29  1  0.63410000  0.80490000  0.15700000  1
  O  O30  1  0.86590000  0.30490000  0.15700000  1
  O  O31  1  0.36590000  0.80490000  0.15700000  1
  O  O32  1  0.86590000  0.41620000  0.34300000  1
  O  O33  1  0.36590000  0.91620000  0.34300000  1
  O  O34  1  0.13410000  0.41620000  0.34300000  1
  O  O35  1  0.63410000  0.91620000  0.34300000  1
  O  O36  1  0.86590000  0.58380000  0.84300000  1
  O  O37  1  0.36590000  0.08380000  0.84300000  1
  O  O38  1  0.13410000  0.58380000  0.84300000  1
  O  O39  1  0.63410000  0.08380000  0.84300000  1
  O  O40  1  0.13410000  0.58380000  0.65700000  1
  O  O41  1  0.63410000  0.08380000  0.65700000  1
  O  O42  1  0.86590000  0.58380000  0.65700000  1
  O  O43  1  0.36590000  0.08380000  0.65700000  1
  O  O44  1  0.13410000  0.41620000  0.15700000  1
  O  O45  1  0.63410000  0.91620000  0.15700000  1
  O  O46  1  0.86590000  0.41620000  0.15700000  1
  O  O47  1  0.36590000  0.91620000  0.15700000  1
  O  O48  1  0.79310000  0.36080000  0.44970000  1
  O  O49  1  0.29310000  0.86080000  0.44970000  1
  O  O50  1  0.20690000  0.36080000  0.44970000  1
  O  O51  1  0.70690000  0.86080000  0.44970000  1
  O  O52  1  0.79310000  0.63920000  0.94970000  1
  O  O53  1  0.29310000  0.13920000  0.94970000  1
  O  O54  1  0.20690000  0.63920000  0.94970000  1
  O  O55  1  0.70690000  0.13920000  0.94970000  1
  O  O56  1  0.20690000  0.63920000  0.55030000  1
  O  O57  1  0.70690000  0.13920000  0.55030000  1
  O  O58  1  0.79310000  0.63920000  0.55030000  1
  O  O59  1  0.29310000  0.13920000  0.55030000  1
  O  O60  1  0.20690000  0.36080000  0.05030000  1
  O  O61  1  0.70690000  0.86080000  0.05030000  1
  O  O62  1  0.79310000  0.36080000  0.05030000  1
  O  O63  1  0.29310000  0.86080000  0.05030000  1
  O  O64  1  0.63400000  0.63910000  0.44560000  1
  O  O65  1  0.13400000  0.13910000  0.44560000  1
  O  O66  1  0.36600000  0.63910000  0.44560000  1
  O  O67  1  0.86600000  0.13910000  0.44560000  1
  O  O68  1  0.63400000  0.36090000  0.94560000  1
  O  O69  1  0.13400000  0.86090000  0.94560000  1
  O  O70  1  0.36600000  0.36090000  0.94560000  1
  O  O71  1  0.86600000  0.86090000  0.94560000  1
  O  O72  1  0.36600000  0.36090000  0.55440000  1
  O  O73  1  0.86600000  0.86090000  0.55440000  1
  O  O74  1  0.63400000  0.36090000  0.55440000  1
  O  O75  1  0.13400000  0.86090000  0.55440000  1
  O  O76  1  0.36600000  0.63910000  0.05440000  1
  O  O77  1  0.86600000  0.13910000  0.05440000  1
  O  O78  1  0.63400000  0.63910000  0.05440000  1
  O  O79  1  0.13400000  0.13910000  0.05440000  1
  O  O80  1  0.86580000  0.58300000  0.44360000  1
  O  O81  1  0.36580000  0.08300000  0.44360000  1
  O  O82  1  0.13420000  0.58300000  0.44360000  1
  O  O83  1  0.63420000  0.08300000  0.44360000  1
  O  O84  1  0.86580000  0.41700000  0.94360000  1
  O  O85  1  0.36580000  0.91700000  0.94360000  1
  O  O86  1  0.13420000  0.41700000  0.94360000  1
  O  O87  1  0.63420000  0.91700000  0.94360000  1
  O  O88  1  0.13420000  0.41700000  0.55640000  1
  O  O89  1  0.63420000  0.91700000  0.55640000  1
  O  O90  1  0.86580000  0.41700000  0.55640000  1
  O  O91  1  0.36580000  0.91700000  0.55640000  1
  O  O92  1  0.13420000  0.58300000  0.05640000  1
  O  O93  1  0.63420000  0.08300000  0.05640000  1
  O  O94  1  0.86580000  0.58300000  0.05640000  1
  O  O95  1  0.36580000  0.08300000  0.05640000  1
  O  O96  1  0.86590000  0.69410000  0.44300000  1
  O  O97  1  0.36590000  0.19410000  0.44300000  1
  O  O98  1  0.13410000  0.69410000  0.44300000  1
  O  O99  1  0.63410000  0.19410000  0.44300000  1
  O  O100  1  0.86590000  0.30590000  0.94300000  1
  O  O101  1  0.36590000  0.80590000  0.94300000  1
  O  O102  1  0.13410000  0.30590000  0.94300000  1
  O  O103  1  0.63410000  0.80590000  0.94300000  1
  O  O104  1  0.13410000  0.30590000  0.55700000  1
  O  O105  1  0.63410000  0.80590000  0.55700000  1
  O  O106  1  0.86590000  0.30590000  0.55700000  1
  O  O107  1  0.36590000  0.80590000  0.55700000  1
  O  O108  1  0.13410000  0.69410000  0.05700000  1
  O  O109  1  0.63410000  0.19410000  0.05700000  1
  O  O110  1  0.86590000  0.69410000  0.05700000  1
  O  O111  1  0.36590000  0.19410000  0.05700000  1
  O  O112  1  0.00000000  0.47020000  0.25000000  1
  O  O113  1  0.50000000  0.97020000  0.25000000  1
  O  O114  1  0.00000000  0.52980000  0.75000000  1
  O  O115  1  0.50000000  0.02980000  0.75000000  1
  O  O116  1  0.00000000  0.50970000  0.37080000  1
  O  O117  1  0.50000000  0.00970000  0.37080000  1
  O  O118  1  0.00000000  0.49030000  0.87080000  1
  O  O119  1  0.50000000  0.99030000  0.87080000  1
  O  O120  1  0.00000000  0.49030000  0.62920000  1
  O  O121  1  0.50000000  0.99030000  0.62920000  1
  O  O122  1  0.00000000  0.50970000  0.12920000  1
  O  O123  1  0.50000000  0.00970000  0.12920000  1
  O  O124  1  0.00000000  0.50000000  0.50000000  1
  O  O125  1  0.50000000  0.00000000  0.50000000  1
  O  O126  1  0.00000000  0.50000000  0.00000000  1
  O  O127  1  0.50000000  0.00000000  0.00000000  1
  O  O128  1  0.00000000  0.76700000  0.37000000  1
  O  O129  1  0.50000000  0.26700000  0.37000000  1
  O  O130  1  0.00000000  0.23300000  0.87000000  1
  O  O131  1  0.50000000  0.73300000  0.87000000  1
  O  O132  1  0.00000000  0.23300000  0.63000000  1
  O  O133  1  0.50000000  0.73300000  0.63000000  1
  O  O134  1  0.00000000  0.76700000  0.13000000  1
  O  O135  1  0.50000000  0.26700000  0.13000000  1
  O  O136  1  0.00000000  0.77710000  0.49950000  1
  O  O137  1  0.50000000  0.27710000  0.49950000  1
  O  O138  1  0.00000000  0.22290000  0.99950000  1
  O  O139  1  0.50000000  0.72290000  0.99950000  1
  O  O140  1  0.00000000  0.22290000  0.50050000  1
  O  O141  1  0.50000000  0.72290000  0.50050000  1
  O  O142  1  0.00000000  0.77710000  0.00050000  1
  O  O143  1  0.50000000  0.27710000  0.00050000  1
  O  O144  1  0.00000000  0.25080000  0.25000000  1
  O  O145  1  0.50000000  0.75080000  0.25000000  1
  O  O146  1  0.00000000  0.74920000  0.75000000  1
  O  O147  1  0.50000000  0.24920000  0.75000000  1
  O  O148  1  0.00000000  0.21160000  0.37120000  1
  O  O149  1  0.50000000  0.71160000  0.37120000  1
  O  O150  1  0.00000000  0.78840000  0.87120000  1
  O  O151  1  0.50000000  0.28840000  0.87120000  1
  O  O152  1  0.00000000  0.78840000  0.62880000  1
  O  O153  1  0.50000000  0.28840000  0.62880000  1
  O  O154  1  0.00000000  0.21160000  0.12880000  1
  O  O155  1  0.50000000  0.71160000  0.12880000  1
  O  O156  1  0.00000000  0.80860000  0.25000000  1
  O  O157  1  0.50000000  0.30860000  0.25000000  1
  O  O158  1  0.00000000  0.19140000  0.75000000  1
  O  O159  1  0.50000000  0.69140000  0.75000000  1
