# generated using pymatgen
data_Si
_symmetry_space_group_name_H-M   'P 1'
_cell_length_a   9.80700000
_cell_length_b   23.64600000
_cell_length_c   20.24200000
_cell_angle_alpha   90.00000000
_cell_angle_beta   90.00000000
_cell_angle_gamma   90.00000000
_symmetry_Int_Tables_number   1
_chemical_formula_structural   Si
_chemical_formula_sum   Si80
_cell_volume   4694.04534992
_cell_formula_units_Z   80
loop_
 _symmetry_equiv_pos_site_id
 _symmetry_equiv_pos_as_xyz
  1  'x, y, z'
loop_
 _atom_site_type_symbol
 _atom_site_label
 _atom_site_symmetry_multiplicity
 _atom_site_fract_x
 _atom_site_fract_y
 _atom_site_fract_z
 _atom_site_occupancy
  Si  Si0  1  0.78990000  0.36060000  0.37030000  1
  Si  Si1  1  0.28990000  0.86060000  0.37030000  1
  Si  Si2  1  0.21010000  0.36060000  0.37030000  1
  Si  Si3  1  0.71010000  0.86060000  0.37030000  1
  Si  Si4  1  0.78990000  0.63940000  0.87030000  1
  Si  Si5  1  0.28990000  0.13940000  0.87030000  1
  Si  Si6  1  0.21010000  0.63940000  0.87030000  1
  Si  Si7  1  0.71010000  0.13940000  0.87030000  1
  Si  Si8  1  0.21010000  0.63940000  0.62970000  1
  Si  Si9  1  0.71010000  0.13940000  0.62970000  1
  Si  Si10  1  0.78990000  0.63940000  0.62970000  1
  Si  Si11  1  0.28990000  0.13940000  0.62970000  1
  Si  Si12  1  0.21010000  0.36060000  0.12970000  1
  Si  Si13  1  0.71010000  0.86060000  0.12970000  1
  Si  Si14  1  0.78990000  0.36060000  0.12970000  1
  Si  Si15  1  0.28990000  0.86060000  0.12970000  1
  Si  Si16  1  0.78980000  0.63870000  0.47080000  1
  Si  Si17  1  0.28980000  0.13870000  0.47080000  1
  Si  Si18  1  0.21020000  0.63870000  0.47080000  1
  Si  Si19  1  0.71020000  0.13870000  0.47080000  1
  Si  Si20  1  0.78980000  0.36130000  0.97080000  1
  Si  Si21  1  0.28980000  0.86130000  0.97080000  1
  Si  Si22  1  0.21020000  0.36130000  0.97080000  1
  Si  Si23  1  0.71020000  0.86130000  0.97080000  1
  Si  Si24  1  0.21020000  0.36130000  0.52920000  1
  Si  Si25  1  0.71020000  0.86130000  0.52920000  1
  Si  Si26  1  0.78980000  0.36130000  0.52920000  1
  Si  Si27  1  0.28980000  0.86130000  0.52920000  1
  Si  Si28  1  0.21020000  0.63870000  0.02920000  1
  Si  Si29  1  0.71020000  0.13870000  0.02920000  1
  Si  Si30  1  0.78980000  0.63870000  0.02920000  1
  Si  Si31  1  0.28980000  0.13870000  0.02920000  1
  Si  Si32  1  0.00000000  0.45290000  0.32690000  1
  Si  Si33  1  0.50000000  0.95290000  0.32690000  1
  Si  Si34  1  0.00000000  0.54710000  0.82690000  1
  Si  Si35  1  0.50000000  0.04710000  0.82690000  1
  Si  Si36  1  0.00000000  0.54710000  0.67310000  1
  Si  Si37  1  0.50000000  0.04710000  0.67310000  1
  Si  Si38  1  0.00000000  0.45290000  0.17310000  1
  Si  Si39  1  0.50000000  0.95290000  0.17310000  1
  Si  Si40  1  0.00000000  0.54400000  0.43950000  1
  Si  Si41  1  0.50000000  0.04400000  0.43950000  1
  Si  Si42  1  0.00000000  0.45600000  0.93950000  1
  Si  Si43  1  0.50000000  0.95600000  0.93950000  1
  Si  Si44  1  0.00000000  0.45600000  0.56050000  1
  Si  Si45  1  0.50000000  0.95600000  0.56050000  1
  Si  Si46  1  0.00000000  0.54400000  0.06050000  1
  Si  Si47  1  0.50000000  0.04400000  0.06050000  1
  Si  Si48  1  0.00000000  0.73320000  0.43900000  1
  Si  Si49  1  0.50000000  0.23320000  0.43900000  1
  Si  Si50  1  0.00000000  0.26680000  0.93900000  1
  Si  Si51  1  0.50000000  0.76680000  0.93900000  1
  Si  Si52  1  0.00000000  0.26680000  0.56100000  1
  Si  Si53  1  0.50000000  0.76680000  0.56100000  1
  Si  Si54  1  0.00000000  0.73320000  0.06100000  1
  Si  Si55  1  0.50000000  0.23320000  0.06100000  1
  Si  Si56  1  0.00000000  0.26820000  0.32690000  1
  Si  Si57  1  0.50000000  0.76820000  0.32690000  1
  Si  Si58  1  0.00000000  0.73180000  0.82690000  1
  Si  Si59  1  0.50000000  0.23180000  0.82690000  1
  Si  Si60  1  0.00000000  0.73180000  0.67310000  1
  Si  Si61  1  0.50000000  0.23180000  0.67310000  1
  Si  Si62  1  0.00000000  0.26820000  0.17310000  1
  Si  Si63  1  0.50000000  0.76820000  0.17310000  1
  Si  Si64  1  0.00000000  0.17830000  0.44050000  1
  Si  Si65  1  0.50000000  0.67830000  0.44050000  1
  Si  Si66  1  0.00000000  0.82170000  0.94050000  1
  Si  Si67  1  0.50000000  0.32170000  0.94050000  1
  Si  Si68  1  0.00000000  0.82170000  0.55950000  1
  Si  Si69  1  0.50000000  0.32170000  0.55950000  1
  Si  Si70  1  0.00000000  0.17830000  0.05950000  1
  Si  Si71  1  0.50000000  0.67830000  0.05950000  1
  Si  Si72  1  0.00000000  0.82450000  0.32730000  1
  Si  Si73  1  0.50000000  0.32450000  0.32730000  1
  Si  Si74  1  0.00000000  0.17550000  0.82730000  1
  Si  Si75  1  0.50000000  0.67550000  0.82730000  1
  Si  Si76  1  0.00000000  0.17550000  0.67270000  1
  Si  Si77  1  0.50000000  0.67550000  0.67270000  1
  Si  Si78  1  0.00000000  0.82450000  0.17270000  1
  Si  Si79  1  0.50000000  0.32450000  0.17270000  1
