# generated using pymatgen
data_SiO4
_symmetry_space_group_name_H-M   'P 1'
_cell_length_a   18.86773000
_cell_length_b   18.86773000
_cell_length_c   11.63328000
_cell_angle_alpha   90.00000000
_cell_angle_beta   90.00000000
_cell_angle_gamma   120.00000000
_symmetry_Int_Tables_number   1
_chemical_formula_structural   SiO4
_chemical_formula_sum   'Si1 O4'
_cell_volume   3586.51059799
_cell_formula_units_Z   1
loop_
 _symmetry_equiv_pos_site_id
 _symmetry_equiv_pos_as_xyz
  1  'x, y, z'
loop_
 _atom_site_type_symbol
 _atom_site_label
 _atom_site_symmetry_multiplicity
 _atom_site_fract_x
 _atom_site_fract_y
 _atom_site_fract_z
 _atom_site_occupancy
  Si  Si0  1  0.90501000  0.37113000  0.36613000  1
  O  O1  1  0.85022000  0.29082000  0.28913000  1
  O  O2  1  0.88939000  0.34651000  0.50000000  1
  O  O3  1  1.00000000  0.40578000  0.33599000  1
  O  O4  1  0.88166000  0.44083000  0.33995000  1
