# generated using pymatgen
data_Si
_symmetry_space_group_name_H-M   'P 1'
_cell_length_a   18.86773000
_cell_length_b   18.86773000
_cell_length_c   11.63328000
_cell_angle_alpha   90.00000000
_cell_angle_beta   90.00000000
_cell_angle_gamma   120.00000000
_symmetry_Int_Tables_number   1
_chemical_formula_structural   Si
_chemical_formula_sum   Si46
_cell_volume   3586.51059799
_cell_formula_units_Z   46
loop_
 _symmetry_equiv_pos_site_id
 _symmetry_equiv_pos_as_xyz
  1  'x, y, z'
loop_
 _atom_site_type_symbol
 _atom_site_label
 _atom_site_symmetry_multiplicity
 _atom_site_fract_x
 _atom_site_fract_y
 _atom_site_fract_z
 _atom_site_occupancy
  Si  Si0  1  0.37113000  0.46612000  0.36613000  1
  Si  Si1  1  0.53388000  0.90501000  0.36613000  1
  Si  Si2  1  0.09499000  0.62887000  0.36613000  1
  Si  Si3  1  0.46612000  0.37113000  0.36613000  1
  Si  Si4  1  0.62887000  0.09499000  0.36613000  1
  Si  Si5  1  0.90501000  0.53388000  0.36613000  1
  Si  Si6  1  0.62887000  0.53388000  0.36613000  1
  Si  Si7  1  0.46612000  0.09499000  0.36613000  1
  Si  Si8  1  0.90501000  0.37113000  0.36613000  1
  Si  Si9  1  0.53388000  0.62887000  0.36613000  1
  Si  Si10  1  0.37113000  0.90501000  0.36613000  1
  Si  Si11  1  0.09499000  0.46612000  0.36613000  1
  Si  Si12  1  0.62887000  0.53388000  0.63387000  1
  Si  Si13  1  0.46612000  0.09499000  0.63387000  1
  Si  Si14  1  0.90501000  0.37113000  0.63387000  1
  Si  Si15  1  0.53388000  0.62887000  0.63387000  1
  Si  Si16  1  0.37113000  0.90501000  0.63387000  1
  Si  Si17  1  0.09499000  0.46612000  0.63387000  1
  Si  Si18  1  0.37113000  0.46612000  0.63387000  1
  Si  Si19  1  0.53388000  0.90501000  0.63387000  1
  Si  Si20  1  0.09499000  0.62887000  0.63387000  1
  Si  Si21  1  0.46612000  0.37113000  0.63387000  1
  Si  Si22  1  0.62887000  0.09499000  0.63387000  1
  Si  Si23  1  0.90501000  0.53388000  0.63387000  1
  Si  Si24  1  0.24401000  0.48802000  0.24872000  1
  Si  Si25  1  0.51198000  0.75599000  0.24872000  1
  Si  Si26  1  0.24401000  0.75599000  0.24872000  1
  Si  Si27  1  0.48802000  0.24401000  0.24872000  1
  Si  Si28  1  0.75599000  0.24401000  0.24872000  1
  Si  Si29  1  0.75599000  0.51198000  0.24872000  1
  Si  Si30  1  0.75599000  0.51198000  0.75128000  1
  Si  Si31  1  0.48802000  0.24401000  0.75128000  1
  Si  Si32  1  0.75599000  0.24401000  0.75128000  1
  Si  Si33  1  0.51198000  0.75599000  0.75128000  1
  Si  Si34  1  0.24401000  0.75599000  0.75128000  1
  Si  Si35  1  0.24401000  0.48802000  0.75128000  1
  Si  Si36  1  0.28108000  0.71892000  0.00000000  1
  Si  Si37  1  0.28108000  0.56216000  0.00000000  1
  Si  Si38  1  0.43784000  0.71892000  0.00000000  1
  Si  Si39  1  0.71892000  0.28108000  0.00000000  1
  Si  Si40  1  0.71892000  0.43784000  0.00000000  1
  Si  Si41  1  0.56216000  0.28108000  0.00000000  1
  Si  Si42  1  0.33333333  0.66666667  0.36197000  1
  Si  Si43  1  0.66666667  0.33333333  0.36197000  1
  Si  Si44  1  0.66666667  0.33333333  0.63803000  1
  Si  Si45  1  0.33333333  0.66666667  0.63803000  1
