# generated using pymatgen
data_O2
_symmetry_space_group_name_H-M   'P 1'
_cell_length_a   18.76610000
_cell_length_b   18.76610000
_cell_length_c   11.69394000
_cell_angle_alpha   90.00000000
_cell_angle_beta   90.00000000
_cell_angle_gamma   90.00000000
_symmetry_Int_Tables_number   1
_chemical_formula_structural   O2
_chemical_formula_sum   O128
_cell_volume   4118.21402871
_cell_formula_units_Z   64
loop_
 _symmetry_equiv_pos_site_id
 _symmetry_equiv_pos_as_xyz
  1  'x, y, z'
loop_
 _atom_site_type_symbol
 _atom_site_label
 _atom_site_symmetry_multiplicity
 _atom_site_fract_x
 _atom_site_fract_y
 _atom_site_fract_z
 _atom_site_occupancy
  O  O0  1  0.00000000  0.00000000  0.18251000  1
  O  O1  1  0.50000000  0.50000000  0.68251000  1
  O  O2  1  0.00000000  0.00000000  0.81749000  1
  O  O3  1  0.50000000  0.50000000  0.31749000  1
  O  O4  1  0.05726000  0.05726000  0.00000000  1
  O  O5  1  0.94274000  0.94274000  0.00000000  1
  O  O6  1  0.55726000  0.44274000  0.50000000  1
  O  O7  1  0.44274000  0.55726000  0.50000000  1
  O  O8  1  0.13611000  0.03719000  0.18121000  1
  O  O9  1  0.86389000  0.96281000  0.18121000  1
  O  O10  1  0.63611000  0.46281000  0.68121000  1
  O  O11  1  0.36389000  0.53719000  0.68121000  1
  O  O12  1  0.03719000  0.13611000  0.18121000  1
  O  O13  1  0.96281000  0.86389000  0.18121000  1
  O  O14  1  0.53719000  0.36389000  0.68121000  1
  O  O15  1  0.46281000  0.63611000  0.68121000  1
  O  O16  1  0.86389000  0.96281000  0.81879000  1
  O  O17  1  0.13611000  0.03719000  0.81879000  1
  O  O18  1  0.36389000  0.53719000  0.31879000  1
  O  O19  1  0.63611000  0.46281000  0.31879000  1
  O  O20  1  0.96281000  0.86389000  0.81879000  1
  O  O21  1  0.03719000  0.13611000  0.81879000  1
  O  O22  1  0.46281000  0.63611000  0.31879000  1
  O  O23  1  0.53719000  0.36389000  0.31879000  1
  O  O24  1  0.23909000  0.94418000  0.21207000  1
  O  O25  1  0.76091000  0.05582000  0.21207000  1
  O  O26  1  0.73909000  0.55582000  0.71207000  1
  O  O27  1  0.26091000  0.44418000  0.71207000  1
  O  O28  1  0.94418000  0.23909000  0.21207000  1
  O  O29  1  0.05582000  0.76091000  0.21207000  1
  O  O30  1  0.44418000  0.26091000  0.71207000  1
  O  O31  1  0.55582000  0.73909000  0.71207000  1
  O  O32  1  0.76091000  0.05582000  0.78793000  1
  O  O33  1  0.23909000  0.94418000  0.78793000  1
  O  O34  1  0.26091000  0.44418000  0.28793000  1
  O  O35  1  0.73909000  0.55582000  0.28793000  1
  O  O36  1  0.05582000  0.76091000  0.78793000  1
  O  O37  1  0.94418000  0.23909000  0.78793000  1
  O  O38  1  0.55582000  0.73909000  0.28793000  1
  O  O39  1  0.44418000  0.26091000  0.28793000  1
  O  O40  1  0.16484000  0.99098000  0.38777000  1
  O  O41  1  0.83516000  0.00902000  0.38777000  1
  O  O42  1  0.66484000  0.50902000  0.88777000  1
  O  O43  1  0.33516000  0.49098000  0.88777000  1
  O  O44  1  0.99098000  0.16484000  0.38777000  1
  O  O45  1  0.00902000  0.83516000  0.38777000  1
  O  O46  1  0.49098000  0.33516000  0.88777000  1
  O  O47  1  0.50902000  0.66484000  0.88777000  1
  O  O48  1  0.83516000  0.00902000  0.61223000  1
  O  O49  1  0.16484000  0.99098000  0.61223000  1
  O  O50  1  0.33516000  0.49098000  0.11223000  1
  O  O51  1  0.66484000  0.50902000  0.11223000  1
  O  O52  1  0.00902000  0.83516000  0.61223000  1
  O  O53  1  0.99098000  0.16484000  0.61223000  1
  O  O54  1  0.50902000  0.66484000  0.11223000  1
  O  O55  1  0.49098000  0.33516000  0.11223000  1
  O  O56  1  0.05313000  0.94687000  0.50000000  1
  O  O57  1  0.94687000  0.05313000  0.50000000  1
  O  O58  1  0.55313000  0.55313000  0.00000000  1
  O  O59  1  0.44687000  0.44687000  0.00000000  1
  O  O60  1  0.08268000  0.08268000  0.50000000  1
  O  O61  1  0.91732000  0.91732000  0.50000000  1
  O  O62  1  0.58268000  0.41732000  0.00000000  1
  O  O63  1  0.41732000  0.58268000  0.00000000  1
  O  O64  1  0.25506000  0.07561000  0.28585000  1
  O  O65  1  0.74494000  0.92439000  0.28585000  1
  O  O66  1  0.75506000  0.42439000  0.78585000  1
  O  O67  1  0.24494000  0.57561000  0.78585000  1
  O  O68  1  0.07561000  0.25506000  0.28585000  1
  O  O69  1  0.92439000  0.74494000  0.28585000  1
  O  O70  1  0.57561000  0.24494000  0.78585000  1
  O  O71  1  0.42439000  0.75506000  0.78585000  1
  O  O72  1  0.74494000  0.92439000  0.71415000  1
  O  O73  1  0.25506000  0.07561000  0.71415000  1
  O  O74  1  0.24494000  0.57561000  0.21415000  1
  O  O75  1  0.75506000  0.42439000  0.21415000  1
  O  O76  1  0.92439000  0.74494000  0.71415000  1
  O  O77  1  0.07561000  0.25506000  0.71415000  1
  O  O78  1  0.42439000  0.75506000  0.21415000  1
  O  O79  1  0.57561000  0.24494000  0.21415000  1
  O  O80  1  0.19953000  0.19953000  0.33379000  1
  O  O81  1  0.80047000  0.80047000  0.33379000  1
  O  O82  1  0.69953000  0.30047000  0.83379000  1
  O  O83  1  0.30047000  0.69953000  0.83379000  1
  O  O84  1  0.80047000  0.80047000  0.66621000  1
  O  O85  1  0.19953000  0.19953000  0.66621000  1
  O  O86  1  0.30047000  0.69953000  0.16621000  1
  O  O87  1  0.69953000  0.30047000  0.16621000  1
  O  O88  1  0.24971000  0.11938000  0.50000000  1
  O  O89  1  0.75029000  0.88062000  0.50000000  1
  O  O90  1  0.74971000  0.38062000  0.00000000  1
  O  O91  1  0.25029000  0.61938000  0.00000000  1
  O  O92  1  0.11938000  0.24971000  0.50000000  1
  O  O93  1  0.88062000  0.75029000  0.50000000  1
  O  O94  1  0.61938000  0.25029000  0.00000000  1
  O  O95  1  0.38062000  0.74971000  0.00000000  1
  O  O96  1  0.33731000  0.18158000  0.35565000  1
  O  O97  1  0.66269000  0.81842000  0.35565000  1
  O  O98  1  0.83731000  0.31842000  0.85565000  1
  O  O99  1  0.16269000  0.68158000  0.85565000  1
  O  O100  1  0.18158000  0.33731000  0.35565000  1
  O  O101  1  0.81842000  0.66269000  0.35565000  1
  O  O102  1  0.68158000  0.16269000  0.85565000  1
  O  O103  1  0.31842000  0.83731000  0.85565000  1
  O  O104  1  0.66269000  0.81842000  0.64435000  1
  O  O105  1  0.33731000  0.18158000  0.64435000  1
  O  O106  1  0.16269000  0.68158000  0.14435000  1
  O  O107  1  0.83731000  0.31842000  0.14435000  1
  O  O108  1  0.81842000  0.66269000  0.64435000  1
  O  O109  1  0.18158000  0.33731000  0.64435000  1
  O  O110  1  0.31842000  0.83731000  0.14435000  1
  O  O111  1  0.68158000  0.16269000  0.14435000  1
  O  O112  1  0.31980000  0.31980000  0.33073000  1
  O  O113  1  0.68020000  0.68020000  0.33073000  1
  O  O114  1  0.81980000  0.18020000  0.83073000  1
  O  O115  1  0.18020000  0.81980000  0.83073000  1
  O  O116  1  0.68020000  0.68020000  0.66927000  1
  O  O117  1  0.31980000  0.31980000  0.66927000  1
  O  O118  1  0.18020000  0.81980000  0.16927000  1
  O  O119  1  0.81980000  0.18020000  0.16927000  1
  O  O120  1  0.39776000  0.27032000  0.50000000  1
  O  O121  1  0.60224000  0.72968000  0.50000000  1
  O  O122  1  0.89776000  0.22968000  0.00000000  1
  O  O123  1  0.10224000  0.77032000  0.00000000  1
  O  O124  1  0.27032000  0.39776000  0.50000000  1
  O  O125  1  0.72968000  0.60224000  0.50000000  1
  O  O126  1  0.77032000  0.10224000  0.00000000  1
  O  O127  1  0.22968000  0.89776000  0.00000000  1
