# generated using pymatgen
data_Si
_symmetry_space_group_name_H-M   'P 1'
_cell_length_a   18.76610000
_cell_length_b   18.76610000
_cell_length_c   11.69394000
_cell_angle_alpha   90.00000000
_cell_angle_beta   90.00000000
_cell_angle_gamma   90.00000000
_symmetry_Int_Tables_number   1
_chemical_formula_structural   Si
_chemical_formula_sum   Si64
_cell_volume   4118.21402871
_cell_formula_units_Z   64
loop_
 _symmetry_equiv_pos_site_id
 _symmetry_equiv_pos_as_xyz
  1  'x, y, z'
loop_
 _atom_site_type_symbol
 _atom_site_label
 _atom_site_symmetry_multiplicity
 _atom_site_fract_x
 _atom_site_fract_y
 _atom_site_fract_z
 _atom_site_occupancy
  Si  Si0  1  0.19875000  0.01200000  0.26596000  1
  Si  Si1  1  0.80125000  0.98800000  0.26596000  1
  Si  Si2  1  0.69875000  0.48800000  0.76596000  1
  Si  Si3  1  0.30125000  0.51200000  0.76596000  1
  Si  Si4  1  0.01200000  0.19875000  0.26596000  1
  Si  Si5  1  0.98800000  0.80125000  0.26596000  1
  Si  Si6  1  0.51200000  0.30125000  0.76596000  1
  Si  Si7  1  0.48800000  0.69875000  0.76596000  1
  Si  Si8  1  0.80125000  0.98800000  0.73404000  1
  Si  Si9  1  0.19875000  0.01200000  0.73404000  1
  Si  Si10  1  0.30125000  0.51200000  0.23404000  1
  Si  Si11  1  0.69875000  0.48800000  0.23404000  1
  Si  Si12  1  0.98800000  0.80125000  0.73404000  1
  Si  Si13  1  0.01200000  0.19875000  0.73404000  1
  Si  Si14  1  0.48800000  0.69875000  0.23404000  1
  Si  Si15  1  0.51200000  0.30125000  0.23404000  1
  Si  Si16  1  0.26078000  0.14372000  0.36917000  1
  Si  Si17  1  0.73922000  0.85628000  0.36917000  1
  Si  Si18  1  0.76078000  0.35628000  0.86917000  1
  Si  Si19  1  0.23922000  0.64372000  0.86917000  1
  Si  Si20  1  0.14372000  0.26078000  0.36917000  1
  Si  Si21  1  0.85628000  0.73922000  0.36917000  1
  Si  Si22  1  0.64372000  0.23922000  0.86917000  1
  Si  Si23  1  0.35628000  0.76078000  0.86917000  1
  Si  Si24  1  0.73922000  0.85628000  0.63083000  1
  Si  Si25  1  0.26078000  0.14372000  0.63083000  1
  Si  Si26  1  0.23922000  0.64372000  0.13083000  1
  Si  Si27  1  0.76078000  0.35628000  0.13083000  1
  Si  Si28  1  0.85628000  0.73922000  0.63083000  1
  Si  Si29  1  0.14372000  0.26078000  0.63083000  1
  Si  Si30  1  0.35628000  0.76078000  0.13083000  1
  Si  Si31  1  0.64372000  0.23922000  0.13083000  1
  Si  Si32  1  0.37479000  0.25837000  0.36873000  1
  Si  Si33  1  0.62521000  0.74163000  0.36873000  1
  Si  Si34  1  0.87479000  0.24163000  0.86873000  1
  Si  Si35  1  0.12521000  0.75837000  0.86873000  1
  Si  Si36  1  0.25837000  0.37479000  0.36873000  1
  Si  Si37  1  0.74163000  0.62521000  0.36873000  1
  Si  Si38  1  0.75837000  0.12521000  0.86873000  1
  Si  Si39  1  0.24163000  0.87479000  0.86873000  1
  Si  Si40  1  0.62521000  0.74163000  0.63127000  1
  Si  Si41  1  0.37479000  0.25837000  0.63127000  1
  Si  Si42  1  0.12521000  0.75837000  0.13127000  1
  Si  Si43  1  0.87479000  0.24163000  0.13127000  1
  Si  Si44  1  0.74163000  0.62521000  0.63127000  1
  Si  Si45  1  0.25837000  0.37479000  0.63127000  1
  Si  Si46  1  0.24163000  0.87479000  0.13127000  1
  Si  Si47  1  0.75837000  0.12521000  0.13127000  1
  Si  Si48  1  0.05736000  0.05736000  0.13741000  1
  Si  Si49  1  0.94264000  0.94264000  0.13741000  1
  Si  Si50  1  0.55736000  0.44264000  0.63741000  1
  Si  Si51  1  0.44264000  0.55736000  0.63741000  1
  Si  Si52  1  0.94264000  0.94264000  0.86259000  1
  Si  Si53  1  0.05736000  0.05736000  0.86259000  1
  Si  Si54  1  0.44264000  0.55736000  0.36259000  1
  Si  Si55  1  0.55736000  0.44264000  0.36259000  1
  Si  Si56  1  0.11698000  0.00393000  0.50000000  1
  Si  Si57  1  0.88302000  0.99607000  0.50000000  1
  Si  Si58  1  0.61698000  0.49607000  0.00000000  1
  Si  Si59  1  0.38302000  0.50393000  0.00000000  1
  Si  Si60  1  0.00393000  0.11698000  0.50000000  1
  Si  Si61  1  0.99607000  0.88302000  0.50000000  1
  Si  Si62  1  0.50393000  0.38302000  0.00000000  1
  Si  Si63  1  0.49607000  0.61698000  0.00000000  1
