# generated using pymatgen
data_O2
_symmetry_space_group_name_H-M   'P 1'
_cell_length_a   5.25600000
_cell_length_b   22.03100000
_cell_length_c   11.38400000
_cell_angle_alpha   90.00000000
_cell_angle_beta   90.00000000
_cell_angle_gamma   90.00000000
_symmetry_Int_Tables_number   1
_chemical_formula_structural   O2
_chemical_formula_sum   O48
_cell_volume   1318.20955142
_cell_formula_units_Z   24
loop_
 _symmetry_equiv_pos_site_id
 _symmetry_equiv_pos_as_xyz
  1  'x, y, z'
loop_
 _atom_site_type_symbol
 _atom_site_label
 _atom_site_symmetry_multiplicity
 _atom_site_fract_x
 _atom_site_fract_y
 _atom_site_fract_z
 _atom_site_occupancy
  O  O0  1  0.00000000  0.17390000  0.86510000  1
  O  O1  1  0.00000000  0.82610000  0.86510000  1
  O  O2  1  0.50000000  0.67390000  0.13490000  1
  O  O3  1  0.50000000  0.32610000  0.13490000  1
  O  O4  1  0.75000000  0.25000000  0.00000000  1
  O  O5  1  0.25000000  0.75000000  0.00000000  1
  O  O6  1  0.75000000  0.75000000  0.00000000  1
  O  O7  1  0.25000000  0.25000000  0.00000000  1
  O  O8  1  0.00000000  0.15870000  0.09380000  1
  O  O9  1  0.00000000  0.84130000  0.09380000  1
  O  O10  1  0.50000000  0.65870000  0.90620000  1
  O  O11  1  0.50000000  0.34130000  0.90620000  1
  O  O12  1  0.75000000  0.13850000  0.67750000  1
  O  O13  1  0.25000000  0.86150000  0.67750000  1
  O  O14  1  0.75000000  0.63850000  0.32250000  1
  O  O15  1  0.25000000  0.36150000  0.32250000  1
  O  O16  1  0.75000000  0.36150000  0.32250000  1
  O  O17  1  0.25000000  0.63850000  0.32250000  1
  O  O18  1  0.75000000  0.86150000  0.67750000  1
  O  O19  1  0.25000000  0.13850000  0.67750000  1
  O  O20  1  0.00000000  0.24180000  0.67500000  1
  O  O21  1  0.00000000  0.75820000  0.67500000  1
  O  O22  1  0.50000000  0.74180000  0.32500000  1
  O  O23  1  0.50000000  0.25820000  0.32500000  1
  O  O24  1  0.00000000  0.05970000  0.22250000  1
  O  O25  1  0.00000000  0.94030000  0.22250000  1
  O  O26  1  0.50000000  0.55970000  0.77750000  1
  O  O27  1  0.50000000  0.44030000  0.77750000  1
  O  O28  1  0.75000000  0.15610000  0.29380000  1
  O  O29  1  0.25000000  0.84390000  0.29380000  1
  O  O30  1  0.75000000  0.65610000  0.70620000  1
  O  O31  1  0.25000000  0.34390000  0.70620000  1
  O  O32  1  0.75000000  0.34390000  0.70620000  1
  O  O33  1  0.25000000  0.65610000  0.70620000  1
  O  O34  1  0.75000000  0.84390000  0.29380000  1
  O  O35  1  0.25000000  0.15610000  0.29380000  1
  O  O36  1  0.50000000  0.17510000  0.49030000  1
  O  O37  1  0.50000000  0.82490000  0.49030000  1
  O  O38  1  0.00000000  0.67510000  0.50970000  1
  O  O39  1  0.00000000  0.32490000  0.50970000  1
  O  O40  1  0.50000000  0.05960000  0.54880000  1
  O  O41  1  0.50000000  0.94040000  0.54880000  1
  O  O42  1  0.00000000  0.55960000  0.45120000  1
  O  O43  1  0.00000000  0.44040000  0.45120000  1
  O  O44  1  0.25000000  0.00000000  0.38560000  1
  O  O45  1  0.75000000  0.00000000  0.38560000  1
  O  O46  1  0.25000000  0.50000000  0.61440000  1
  O  O47  1  0.75000000  0.50000000  0.61440000  1
