# generated using pymatgen
data_Si
_symmetry_space_group_name_H-M   'P 1'
_cell_length_a   5.25600000
_cell_length_b   22.03100000
_cell_length_c   11.38400000
_cell_angle_alpha   90.00000000
_cell_angle_beta   90.00000000
_cell_angle_gamma   90.00000000
_symmetry_Int_Tables_number   1
_chemical_formula_structural   Si
_chemical_formula_sum   Si24
_cell_volume   1318.20955142
_cell_formula_units_Z   24
loop_
 _symmetry_equiv_pos_site_id
 _symmetry_equiv_pos_as_xyz
  1  'x, y, z'
loop_
 _atom_site_type_symbol
 _atom_site_label
 _atom_site_symmetry_multiplicity
 _atom_site_fract_x
 _atom_site_fract_y
 _atom_site_fract_z
 _atom_site_occupancy
  Si  Si0  1  0.00000000  0.20830000  0.98990000  1
  Si  Si1  1  0.00000000  0.79170000  0.98990000  1
  Si  Si2  1  0.50000000  0.70830000  0.01010000  1
  Si  Si3  1  0.50000000  0.29170000  0.01010000  1
  Si  Si4  1  0.00000000  0.17330000  0.72370000  1
  Si  Si5  1  0.00000000  0.82670000  0.72370000  1
  Si  Si6  1  0.50000000  0.67330000  0.27630000  1
  Si  Si7  1  0.50000000  0.32670000  0.27630000  1
  Si  Si8  1  0.00000000  0.13280000  0.22590000  1
  Si  Si9  1  0.00000000  0.86720000  0.22590000  1
  Si  Si10  1  0.50000000  0.63280000  0.77410000  1
  Si  Si11  1  0.50000000  0.36720000  0.77410000  1
  Si  Si12  1  0.50000000  0.18640000  0.35060000  1
  Si  Si13  1  0.50000000  0.81360000  0.35060000  1
  Si  Si14  1  0.00000000  0.68640000  0.64940000  1
  Si  Si15  1  0.00000000  0.31360000  0.64940000  1
  Si  Si16  1  0.50000000  0.12800000  0.59840000  1
  Si  Si17  1  0.50000000  0.87200000  0.59840000  1
  Si  Si18  1  0.00000000  0.62800000  0.40160000  1
  Si  Si19  1  0.00000000  0.37200000  0.40160000  1
  Si  Si20  1  0.00000000  0.00000000  0.30410000  1
  Si  Si21  1  0.50000000  0.50000000  0.69590000  1
  Si  Si22  1  0.50000000  0.00000000  0.46710000  1
  Si  Si23  1  0.00000000  0.50000000  0.53290000  1
