# generated using pymatgen
data_O2
_symmetry_space_group_name_H-M   'P 1'
_cell_length_a   12.33000000
_cell_length_b   12.33000000
_cell_length_c   8.60300000
_cell_angle_alpha   90.00000000
_cell_angle_beta   90.00000000
_cell_angle_gamma   120.00000000
_symmetry_Int_Tables_number   1
_chemical_formula_structural   O2
_chemical_formula_sum   O32
_cell_volume   1132.67863245
_cell_formula_units_Z   16
loop_
 _symmetry_equiv_pos_site_id
 _symmetry_equiv_pos_as_xyz
  1  'x, y, z'
loop_
 _atom_site_type_symbol
 _atom_site_label
 _atom_site_symmetry_multiplicity
 _atom_site_fract_x
 _atom_site_fract_y
 _atom_site_fract_z
 _atom_site_occupancy
  O  O0  1  0.30870000  0.77570000  0.24910000  1
  O  O1  1  0.22430000  0.53300000  0.24910000  1
  O  O2  1  0.46700000  0.69130000  0.24910000  1
  O  O3  1  0.77570000  0.30870000  0.24910000  1
  O  O4  1  0.53300000  0.22430000  0.24910000  1
  O  O5  1  0.69130000  0.46700000  0.24910000  1
  O  O6  1  0.69130000  0.22430000  0.75090000  1
  O  O7  1  0.77570000  0.46700000  0.75090000  1
  O  O8  1  0.53300000  0.30870000  0.75090000  1
  O  O9  1  0.22430000  0.69130000  0.75090000  1
  O  O10  1  0.46700000  0.77570000  0.75090000  1
  O  O11  1  0.30870000  0.53300000  0.75090000  1
  O  O12  1  0.35320000  0.00000000  0.33680000  1
  O  O13  1  0.00000000  0.35320000  0.33680000  1
  O  O14  1  0.64680000  0.64680000  0.33680000  1
  O  O15  1  0.64680000  0.00000000  0.66320000  1
  O  O16  1  0.00000000  0.64680000  0.66320000  1
  O  O17  1  0.35320000  0.35320000  0.66320000  1
  O  O18  1  0.20000000  0.80000000  0.50000000  1
  O  O19  1  0.20000000  0.40000000  0.50000000  1
  O  O20  1  0.60000000  0.80000000  0.50000000  1
  O  O21  1  0.80000000  0.20000000  0.50000000  1
  O  O22  1  0.40000000  0.20000000  0.50000000  1
  O  O23  1  0.80000000  0.60000000  0.50000000  1
  O  O24  1  0.44100000  0.88200000  0.50000000  1
  O  O25  1  0.11800000  0.55900000  0.50000000  1
  O  O26  1  0.44100000  0.55900000  0.50000000  1
  O  O27  1  0.88200000  0.44100000  0.50000000  1
  O  O28  1  0.55900000  0.11800000  0.50000000  1
  O  O29  1  0.55900000  0.44100000  0.50000000  1
  O  O30  1  0.66666667  0.33333333  0.00000000  1
  O  O31  1  0.33333333  0.66666667  0.00000000  1
