# generated using pymatgen
data_Si
_symmetry_space_group_name_H-M   'P 1'
_cell_length_a   12.33000000
_cell_length_b   12.33000000
_cell_length_c   8.60300000
_cell_angle_alpha   90.00000000
_cell_angle_beta   90.00000000
_cell_angle_gamma   120.00000000
_symmetry_Int_Tables_number   1
_chemical_formula_structural   Si
_chemical_formula_sum   Si16
_cell_volume   1132.67863245
_cell_formula_units_Z   16
loop_
 _symmetry_equiv_pos_site_id
 _symmetry_equiv_pos_as_xyz
  1  'x, y, z'
loop_
 _atom_site_type_symbol
 _atom_site_label
 _atom_site_symmetry_multiplicity
 _atom_site_fract_x
 _atom_site_fract_y
 _atom_site_fract_z
 _atom_site_occupancy
  Si  Si0  1  0.32510000  0.86410000  0.39520000  1
  Si  Si1  1  0.13590000  0.46100000  0.39520000  1
  Si  Si2  1  0.53900000  0.67490000  0.39520000  1
  Si  Si3  1  0.86410000  0.32510000  0.39520000  1
  Si  Si4  1  0.46100000  0.13590000  0.39520000  1
  Si  Si5  1  0.67490000  0.53900000  0.39520000  1
  Si  Si6  1  0.67490000  0.13590000  0.60480000  1
  Si  Si7  1  0.86410000  0.53900000  0.60480000  1
  Si  Si8  1  0.46100000  0.32510000  0.60480000  1
  Si  Si9  1  0.13590000  0.67490000  0.60480000  1
  Si  Si10  1  0.53900000  0.86410000  0.60480000  1
  Si  Si11  1  0.32510000  0.46100000  0.60480000  1
  Si  Si12  1  0.66666667  0.33333333  0.18680000  1
  Si  Si13  1  0.33333333  0.66666667  0.18680000  1
  Si  Si14  1  0.33333333  0.66666667  0.81320000  1
  Si  Si15  1  0.66666667  0.33333333  0.81320000  1
