# generated using pymatgen
data_SiO4
_symmetry_space_group_name_H-M   'P 1'
_cell_length_a   12.33000000
_cell_length_b   12.33000000
_cell_length_c   8.60300000
_cell_angle_alpha   90.00000000
_cell_angle_beta   90.00000000
_cell_angle_gamma   120.00000000
_symmetry_Int_Tables_number   1
_chemical_formula_structural   SiO4
_chemical_formula_sum   'Si1 O4'
_cell_volume   1132.67863245
_cell_formula_units_Z   1
loop_
 _symmetry_equiv_pos_site_id
 _symmetry_equiv_pos_as_xyz
  1  'x, y, z'
loop_
 _atom_site_type_symbol
 _atom_site_label
 _atom_site_symmetry_multiplicity
 _atom_site_fract_x
 _atom_site_fract_y
 _atom_site_fract_z
 _atom_site_occupancy
  Si  Si0  1  0.13590000  0.46100000  0.39520000  1
  O  O1  1  0.22430000  0.53300000  0.24910000  1
  O  O2  1  0.00000000  0.35320000  0.33680000  1
  O  O3  1  0.20000000  0.40000000  0.50000000  1
  O  O4  1  0.11800000  0.55900000  0.50000000  1
