# generated using pymatgen
data_O2
_symmetry_space_group_name_H-M   'P 1'
_cell_length_a   32.82900000
_cell_length_b   14.38000000
_cell_length_c   8.37400000
_cell_angle_alpha   90.00000000
_cell_angle_beta   90.00000000
_cell_angle_gamma   90.00000000
_symmetry_Int_Tables_number   1
_chemical_formula_structural   O2
_chemical_formula_sum   O144
_cell_volume   3953.20646148
_cell_formula_units_Z   72
loop_
 _symmetry_equiv_pos_site_id
 _symmetry_equiv_pos_as_xyz
  1  'x, y, z'
loop_
 _atom_site_type_symbol
 _atom_site_label
 _atom_site_symmetry_multiplicity
 _atom_site_fract_x
 _atom_site_fract_y
 _atom_site_fract_z
 _atom_site_occupancy
  O  O0  1  0.08800000  0.10950000  0.75000000  1
  O  O1  1  0.58800000  0.60950000  0.75000000  1
  O  O2  1  0.91200000  0.10950000  0.75000000  1
  O  O3  1  0.41200000  0.60950000  0.75000000  1
  O  O4  1  0.08800000  0.89050000  0.25000000  1
  O  O5  1  0.58800000  0.39050000  0.25000000  1
  O  O6  1  0.91200000  0.89050000  0.25000000  1
  O  O7  1  0.41200000  0.39050000  0.25000000  1
  O  O8  1  0.04020000  0.15640000  0.51110000  1
  O  O9  1  0.54020000  0.65640000  0.51110000  1
  O  O10  1  0.95980000  0.15640000  0.51110000  1
  O  O11  1  0.45980000  0.65640000  0.51110000  1
  O  O12  1  0.04020000  0.84360000  0.01110000  1
  O  O13  1  0.54020000  0.34360000  0.01110000  1
  O  O14  1  0.95980000  0.84360000  0.01110000  1
  O  O15  1  0.45980000  0.34360000  0.01110000  1
  O  O16  1  0.95980000  0.84360000  0.48890000  1
  O  O17  1  0.45980000  0.34360000  0.48890000  1
  O  O18  1  0.04020000  0.84360000  0.48890000  1
  O  O19  1  0.54020000  0.34360000  0.48890000  1
  O  O20  1  0.95980000  0.15640000  0.98890000  1
  O  O21  1  0.45980000  0.65640000  0.98890000  1
  O  O22  1  0.04020000  0.15640000  0.98890000  1
  O  O23  1  0.54020000  0.65640000  0.98890000  1
  O  O24  1  0.08160000  0.00000000  0.50000000  1
  O  O25  1  0.58160000  0.50000000  0.50000000  1
  O  O26  1  0.91840000  0.00000000  0.50000000  1
  O  O27  1  0.41840000  0.50000000  0.50000000  1
  O  O28  1  0.08160000  0.00000000  0.00000000  1
  O  O29  1  0.58160000  0.50000000  0.00000000  1
  O  O30  1  0.91840000  0.00000000  0.00000000  1
  O  O31  1  0.41840000  0.50000000  0.00000000  1
  O  O32  1  0.11970000  0.16030000  0.47600000  1
  O  O33  1  0.61970000  0.66030000  0.47600000  1
  O  O34  1  0.88030000  0.16030000  0.47600000  1
  O  O35  1  0.38030000  0.66030000  0.47600000  1
  O  O36  1  0.11970000  0.83970000  0.97600000  1
  O  O37  1  0.61970000  0.33970000  0.97600000  1
  O  O38  1  0.88030000  0.83970000  0.97600000  1
  O  O39  1  0.38030000  0.33970000  0.97600000  1
  O  O40  1  0.88030000  0.83970000  0.52400000  1
  O  O41  1  0.38030000  0.33970000  0.52400000  1
  O  O42  1  0.11970000  0.83970000  0.52400000  1
  O  O43  1  0.61970000  0.33970000  0.52400000  1
  O  O44  1  0.88030000  0.16030000  0.02400000  1
  O  O45  1  0.38030000  0.66030000  0.02400000  1
  O  O46  1  0.11970000  0.16030000  0.02400000  1
  O  O47  1  0.61970000  0.66030000  0.02400000  1
  O  O48  1  0.21410000  0.11070000  0.75000000  1
  O  O49  1  0.71410000  0.61070000  0.75000000  1
  O  O50  1  0.78590000  0.11070000  0.75000000  1
  O  O51  1  0.28590000  0.61070000  0.75000000  1
  O  O52  1  0.21410000  0.88930000  0.25000000  1
  O  O53  1  0.71410000  0.38930000  0.25000000  1
  O  O54  1  0.78590000  0.88930000  0.25000000  1
  O  O55  1  0.28590000  0.38930000  0.25000000  1
  O  O56  1  0.27300000  0.12080000  0.53760000  1
  O  O57  1  0.77300000  0.62080000  0.53760000  1
  O  O58  1  0.72700000  0.12080000  0.53760000  1
  O  O59  1  0.22700000  0.62080000  0.53760000  1
  O  O60  1  0.27300000  0.87920000  0.03760000  1
  O  O61  1  0.77300000  0.37920000  0.03760000  1
  O  O62  1  0.72700000  0.87920000  0.03760000  1
  O  O63  1  0.22700000  0.37920000  0.03760000  1
  O  O64  1  0.72700000  0.87920000  0.46240000  1
  O  O65  1  0.22700000  0.37920000  0.46240000  1
  O  O66  1  0.27300000  0.87920000  0.46240000  1
  O  O67  1  0.77300000  0.37920000  0.46240000  1
  O  O68  1  0.72700000  0.12080000  0.96240000  1
  O  O69  1  0.22700000  0.62080000  0.96240000  1
  O  O70  1  0.27300000  0.12080000  0.96240000  1
  O  O71  1  0.77300000  0.62080000  0.96240000  1
  O  O72  1  0.21360000  0.00000000  0.50000000  1
  O  O73  1  0.71360000  0.50000000  0.50000000  1
  O  O74  1  0.78640000  0.00000000  0.50000000  1
  O  O75  1  0.28640000  0.50000000  0.50000000  1
  O  O76  1  0.21360000  0.00000000  0.00000000  1
  O  O77  1  0.71360000  0.50000000  0.00000000  1
  O  O78  1  0.78640000  0.00000000  0.00000000  1
  O  O79  1  0.28640000  0.50000000  0.00000000  1
  O  O80  1  0.19940000  0.17830000  0.46410000  1
  O  O81  1  0.69940000  0.67830000  0.46410000  1
  O  O82  1  0.80060000  0.17830000  0.46410000  1
  O  O83  1  0.30060000  0.67830000  0.46410000  1
  O  O84  1  0.19940000  0.82170000  0.96410000  1
  O  O85  1  0.69940000  0.32170000  0.96410000  1
  O  O86  1  0.80060000  0.82170000  0.96410000  1
  O  O87  1  0.30060000  0.32170000  0.96410000  1
  O  O88  1  0.80060000  0.82170000  0.53590000  1
  O  O89  1  0.30060000  0.32170000  0.53590000  1
  O  O90  1  0.19940000  0.82170000  0.53590000  1
  O  O91  1  0.69940000  0.32170000  0.53590000  1
  O  O92  1  0.80060000  0.17830000  0.03590000  1
  O  O93  1  0.30060000  0.67830000  0.03590000  1
  O  O94  1  0.19940000  0.17830000  0.03590000  1
  O  O95  1  0.69940000  0.67830000  0.03590000  1
  O  O96  1  0.19910000  0.41510000  0.75000000  1
  O  O97  1  0.69910000  0.91510000  0.75000000  1
  O  O98  1  0.80090000  0.41510000  0.75000000  1
  O  O99  1  0.30090000  0.91510000  0.75000000  1
  O  O100  1  0.19910000  0.58490000  0.25000000  1
  O  O101  1  0.69910000  0.08490000  0.25000000  1
  O  O102  1  0.80090000  0.58490000  0.25000000  1
  O  O103  1  0.30090000  0.08490000  0.25000000  1
  O  O104  1  0.16800000  0.50000000  0.50000000  1
  O  O105  1  0.66800000  0.00000000  0.50000000  1
  O  O106  1  0.83200000  0.50000000  0.50000000  1
  O  O107  1  0.33200000  0.00000000  0.50000000  1
  O  O108  1  0.16800000  0.50000000  0.00000000  1
  O  O109  1  0.66800000  0.00000000  0.00000000  1
  O  O110  1  0.83200000  0.50000000  0.00000000  1
  O  O111  1  0.33200000  0.00000000  0.00000000  1
  O  O112  1  0.15420000  0.32120000  0.54540000  1
  O  O113  1  0.65420000  0.82120000  0.54540000  1
  O  O114  1  0.84580000  0.32120000  0.54540000  1
  O  O115  1  0.34580000  0.82120000  0.54540000  1
  O  O116  1  0.15420000  0.67880000  0.04540000  1
  O  O117  1  0.65420000  0.17880000  0.04540000  1
  O  O118  1  0.84580000  0.67880000  0.04540000  1
  O  O119  1  0.34580000  0.17880000  0.04540000  1
  O  O120  1  0.84580000  0.67880000  0.45460000  1
  O  O121  1  0.34580000  0.17880000  0.45460000  1
  O  O122  1  0.15420000  0.67880000  0.45460000  1
  O  O123  1  0.65420000  0.17880000  0.45460000  1
  O  O124  1  0.84580000  0.32120000  0.95460000  1
  O  O125  1  0.34580000  0.82120000  0.95460000  1
  O  O126  1  0.15420000  0.32120000  0.95460000  1
  O  O127  1  0.65420000  0.82120000  0.95460000  1
  O  O128  1  0.15340000  0.26090000  0.25000000  1
  O  O129  1  0.65340000  0.76090000  0.25000000  1
  O  O130  1  0.84660000  0.26090000  0.25000000  1
  O  O131  1  0.34660000  0.76090000  0.25000000  1
  O  O132  1  0.15340000  0.73910000  0.75000000  1
  O  O133  1  0.65340000  0.23910000  0.75000000  1
  O  O134  1  0.84660000  0.73910000  0.75000000  1
  O  O135  1  0.34660000  0.23910000  0.75000000  1
  O  O136  1  0.00000000  0.88880000  0.75000000  1
  O  O137  1  0.50000000  0.38880000  0.75000000  1
  O  O138  1  0.00000000  0.11120000  0.25000000  1
  O  O139  1  0.50000000  0.61120000  0.25000000  1
  O  O140  1  0.00000000  0.00000000  0.50000000  1
  O  O141  1  0.50000000  0.50000000  0.50000000  1
  O  O142  1  0.00000000  0.00000000  0.00000000  1
  O  O143  1  0.50000000  0.50000000  0.00000000  1
