# generated using pymatgen
data_Si
_symmetry_space_group_name_H-M   'P 1'
_cell_length_a   32.82900000
_cell_length_b   14.38000000
_cell_length_c   8.37400000
_cell_angle_alpha   90.00000000
_cell_angle_beta   90.00000000
_cell_angle_gamma   90.00000000
_symmetry_Int_Tables_number   1
_chemical_formula_structural   Si
_chemical_formula_sum   Si72
_cell_volume   3953.20646148
_cell_formula_units_Z   72
loop_
 _symmetry_equiv_pos_site_id
 _symmetry_equiv_pos_as_xyz
  1  'x, y, z'
loop_
 _atom_site_type_symbol
 _atom_site_label
 _atom_site_symmetry_multiplicity
 _atom_site_fract_x
 _atom_site_fract_y
 _atom_site_fract_z
 _atom_site_occupancy
  Si  Si0  1  0.08240000  0.10640000  0.55930000  1
  Si  Si1  1  0.58240000  0.60640000  0.55930000  1
  Si  Si2  1  0.91760000  0.10640000  0.55930000  1
  Si  Si3  1  0.41760000  0.60640000  0.55930000  1
  Si  Si4  1  0.08240000  0.89360000  0.05930000  1
  Si  Si5  1  0.58240000  0.39360000  0.05930000  1
  Si  Si6  1  0.91760000  0.89360000  0.05930000  1
  Si  Si7  1  0.41760000  0.39360000  0.05930000  1
  Si  Si8  1  0.91760000  0.89360000  0.44070000  1
  Si  Si9  1  0.41760000  0.39360000  0.44070000  1
  Si  Si10  1  0.08240000  0.89360000  0.44070000  1
  Si  Si11  1  0.58240000  0.39360000  0.44070000  1
  Si  Si12  1  0.91760000  0.10640000  0.94070000  1
  Si  Si13  1  0.41760000  0.60640000  0.94070000  1
  Si  Si14  1  0.08240000  0.10640000  0.94070000  1
  Si  Si15  1  0.58240000  0.60640000  0.94070000  1
  Si  Si16  1  0.22510000  0.10230000  0.56330000  1
  Si  Si17  1  0.72510000  0.60230000  0.56330000  1
  Si  Si18  1  0.77490000  0.10230000  0.56330000  1
  Si  Si19  1  0.27490000  0.60230000  0.56330000  1
  Si  Si20  1  0.22510000  0.89770000  0.06330000  1
  Si  Si21  1  0.72510000  0.39770000  0.06330000  1
  Si  Si22  1  0.77490000  0.89770000  0.06330000  1
  Si  Si23  1  0.27490000  0.39770000  0.06330000  1
  Si  Si24  1  0.77490000  0.89770000  0.43670000  1
  Si  Si25  1  0.27490000  0.39770000  0.43670000  1
  Si  Si26  1  0.22510000  0.89770000  0.43670000  1
  Si  Si27  1  0.72510000  0.39770000  0.43670000  1
  Si  Si28  1  0.77490000  0.10230000  0.93670000  1
  Si  Si29  1  0.27490000  0.60230000  0.93670000  1
  Si  Si30  1  0.22510000  0.10230000  0.93670000  1
  Si  Si31  1  0.72510000  0.60230000  0.93670000  1
  Si  Si32  1  0.18690000  0.40380000  0.56490000  1
  Si  Si33  1  0.68690000  0.90380000  0.56490000  1
  Si  Si34  1  0.81310000  0.40380000  0.56490000  1
  Si  Si35  1  0.31310000  0.90380000  0.56490000  1
  Si  Si36  1  0.18690000  0.59620000  0.06490000  1
  Si  Si37  1  0.68690000  0.09620000  0.06490000  1
  Si  Si38  1  0.81310000  0.59620000  0.06490000  1
  Si  Si39  1  0.31310000  0.09620000  0.06490000  1
  Si  Si40  1  0.81310000  0.59620000  0.43510000  1
  Si  Si41  1  0.31310000  0.09620000  0.43510000  1
  Si  Si42  1  0.18690000  0.59620000  0.43510000  1
  Si  Si43  1  0.68690000  0.09620000  0.43510000  1
  Si  Si44  1  0.81310000  0.40380000  0.93510000  1
  Si  Si45  1  0.31310000  0.90380000  0.93510000  1
  Si  Si46  1  0.18690000  0.40380000  0.93510000  1
  Si  Si47  1  0.68690000  0.90380000  0.93510000  1
  Si  Si48  1  0.15660000  0.22990000  0.06570000  1
  Si  Si49  1  0.65660000  0.72990000  0.06570000  1
  Si  Si50  1  0.84340000  0.22990000  0.06570000  1
  Si  Si51  1  0.34340000  0.72990000  0.06570000  1
  Si  Si52  1  0.15660000  0.77010000  0.56570000  1
  Si  Si53  1  0.65660000  0.27010000  0.56570000  1
  Si  Si54  1  0.84340000  0.77010000  0.56570000  1
  Si  Si55  1  0.34340000  0.27010000  0.56570000  1
  Si  Si56  1  0.84340000  0.77010000  0.93430000  1
  Si  Si57  1  0.34340000  0.27010000  0.93430000  1
  Si  Si58  1  0.15660000  0.77010000  0.93430000  1
  Si  Si59  1  0.65660000  0.27010000  0.93430000  1
  Si  Si60  1  0.84340000  0.22990000  0.43430000  1
  Si  Si61  1  0.34340000  0.72990000  0.43430000  1
  Si  Si62  1  0.15660000  0.22990000  0.43430000  1
  Si  Si63  1  0.65660000  0.72990000  0.43430000  1
  Si  Si64  1  0.00000000  0.89350000  0.55830000  1
  Si  Si65  1  0.50000000  0.39350000  0.55830000  1
  Si  Si66  1  0.00000000  0.10650000  0.05830000  1
  Si  Si67  1  0.50000000  0.60650000  0.05830000  1
  Si  Si68  1  0.00000000  0.10650000  0.44170000  1
  Si  Si69  1  0.50000000  0.60650000  0.44170000  1
  Si  Si70  1  0.00000000  0.89350000  0.94170000  1
  Si  Si71  1  0.50000000  0.39350000  0.94170000  1
