# generated using pymatgen
data_SiO4
_symmetry_space_group_name_H-M   'P 1'
_cell_length_a   32.82900000
_cell_length_b   14.38000000
_cell_length_c   8.37400000
_cell_angle_alpha   90.00000000
_cell_angle_beta   90.00000000
_cell_angle_gamma   90.00000000
_symmetry_Int_Tables_number   1
_chemical_formula_structural   SiO4
_chemical_formula_sum   'Si1 O4'
_cell_volume   3953.20646148
_cell_formula_units_Z   1
loop_
 _symmetry_equiv_pos_site_id
 _symmetry_equiv_pos_as_xyz
  1  'x, y, z'
loop_
 _atom_site_type_symbol
 _atom_site_label
 _atom_site_symmetry_multiplicity
 _atom_site_fract_x
 _atom_site_fract_y
 _atom_site_fract_z
 _atom_site_occupancy
  Si  Si0  1  0.65660000  0.72990000  0.43430000  1
  O  O1  1  0.61970000  0.66030000  0.47600000  1
  O  O2  1  0.69940000  0.67830000  0.46410000  1
  O  O3  1  0.65420000  0.82120000  0.54540000  1
  O  O4  1  0.65340000  0.76090000  0.25000000  1
