# generated using pymatgen
data_O2
_symmetry_space_group_name_H-M   'P 1'
_cell_length_a   18.12600000
_cell_length_b   18.12600000
_cell_length_c   7.56700000
_cell_angle_alpha   90.00000000
_cell_angle_beta   90.00000000
_cell_angle_gamma   120.00000000
_symmetry_Int_Tables_number   1
_chemical_formula_structural   O2
_chemical_formula_sum   O72
_cell_volume   2153.07082924
_cell_formula_units_Z   36
loop_
 _symmetry_equiv_pos_site_id
 _symmetry_equiv_pos_as_xyz
  1  'x, y, z'
loop_
 _atom_site_type_symbol
 _atom_site_label
 _atom_site_symmetry_multiplicity
 _atom_site_fract_x
 _atom_site_fract_y
 _atom_site_fract_z
 _atom_site_occupancy
  O  O0  1  0.26450000  0.52890000  0.22310000  1
  O  O1  1  0.47110000  0.73560000  0.22310000  1
  O  O2  1  0.26440000  0.73550000  0.22310000  1
  O  O3  1  0.73550000  0.47110000  0.22310000  1
  O  O4  1  0.52890000  0.26440000  0.22310000  1
  O  O5  1  0.73560000  0.26450000  0.22310000  1
  O  O6  1  0.73550000  0.47110000  0.77690000  1
  O  O7  1  0.52890000  0.26440000  0.77690000  1
  O  O8  1  0.73560000  0.26450000  0.77690000  1
  O  O9  1  0.26450000  0.52890000  0.77690000  1
  O  O10  1  0.47110000  0.73560000  0.77690000  1
  O  O11  1  0.26440000  0.73550000  0.77690000  1
  O  O12  1  0.10990000  0.41620000  0.32630000  1
  O  O13  1  0.58380000  0.69370000  0.32630000  1
  O  O14  1  0.30630000  0.89010000  0.32630000  1
  O  O15  1  0.89010000  0.58380000  0.32630000  1
  O  O16  1  0.41620000  0.30630000  0.32630000  1
  O  O17  1  0.69370000  0.10990000  0.32630000  1
  O  O18  1  0.58380000  0.89010000  0.32630000  1
  O  O19  1  0.30630000  0.41620000  0.32630000  1
  O  O20  1  0.10990000  0.69370000  0.32630000  1
  O  O21  1  0.41620000  0.10990000  0.32630000  1
  O  O22  1  0.69370000  0.58380000  0.32630000  1
  O  O23  1  0.89010000  0.30630000  0.32630000  1
  O  O24  1  0.89010000  0.58380000  0.67370000  1
  O  O25  1  0.41620000  0.30630000  0.67370000  1
  O  O26  1  0.69370000  0.10990000  0.67370000  1
  O  O27  1  0.10990000  0.41620000  0.67370000  1
  O  O28  1  0.58380000  0.69370000  0.67370000  1
  O  O29  1  0.30630000  0.89010000  0.67370000  1
  O  O30  1  0.41620000  0.10990000  0.67370000  1
  O  O31  1  0.69370000  0.58380000  0.67370000  1
  O  O32  1  0.89010000  0.30630000  0.67370000  1
  O  O33  1  0.58380000  0.89010000  0.67370000  1
  O  O34  1  0.30630000  0.41620000  0.67370000  1
  O  O35  1  0.10990000  0.69370000  0.67370000  1
  O  O36  1  0.14840000  0.57420000  0.26200000  1
  O  O37  1  0.42580000  0.57420000  0.26200000  1
  O  O38  1  0.42580000  0.85160000  0.26200000  1
  O  O39  1  0.85160000  0.42580000  0.26200000  1
  O  O40  1  0.57420000  0.42580000  0.26200000  1
  O  O41  1  0.57420000  0.14840000  0.26200000  1
  O  O42  1  0.85160000  0.42580000  0.73800000  1
  O  O43  1  0.57420000  0.42580000  0.73800000  1
  O  O44  1  0.57420000  0.14840000  0.73800000  1
  O  O45  1  0.14840000  0.57420000  0.73800000  1
  O  O46  1  0.42580000  0.57420000  0.73800000  1
  O  O47  1  0.42580000  0.85160000  0.73800000  1
  O  O48  1  0.13650000  0.47360000  0.00000000  1
  O  O49  1  0.52640000  0.66290000  0.00000000  1
  O  O50  1  0.33710000  0.86350000  0.00000000  1
  O  O51  1  0.86350000  0.52640000  0.00000000  1
  O  O52  1  0.47360000  0.33710000  0.00000000  1
  O  O53  1  0.66290000  0.13650000  0.00000000  1
  O  O54  1  0.52640000  0.86350000  0.00000000  1
  O  O55  1  0.33710000  0.47360000  0.00000000  1
  O  O56  1  0.13650000  0.66290000  0.00000000  1
  O  O57  1  0.47360000  0.13650000  0.00000000  1
  O  O58  1  0.66290000  0.52640000  0.00000000  1
  O  O59  1  0.86350000  0.33710000  0.00000000  1
  O  O60  1  0.00000000  0.27970000  0.50000000  1
  O  O61  1  0.72030000  0.72030000  0.50000000  1
  O  O62  1  0.27970000  0.00000000  0.50000000  1
  O  O63  1  0.00000000  0.72030000  0.50000000  1
  O  O64  1  0.27970000  0.27970000  0.50000000  1
  O  O65  1  0.72030000  0.00000000  0.50000000  1
  O  O66  1  0.16280000  0.32560000  0.50000000  1
  O  O67  1  0.67440000  0.83720000  0.50000000  1
  O  O68  1  0.16280000  0.83720000  0.50000000  1
  O  O69  1  0.83720000  0.67440000  0.50000000  1
  O  O70  1  0.32560000  0.16280000  0.50000000  1
  O  O71  1  0.83720000  0.16280000  0.50000000  1
