# generated using pymatgen
data_Si
_symmetry_space_group_name_H-M   'P 1'
_cell_length_a   7.57100000
_cell_length_b   18.14800000
_cell_length_c   25.93200000
_cell_angle_alpha   90.00000000
_cell_angle_beta   90.00000000
_cell_angle_gamma   90.00000000
_symmetry_Int_Tables_number   1
_chemical_formula_structural   Si
_chemical_formula_sum   Si60
_cell_volume   3563.01810946
_cell_formula_units_Z   60
loop_
 _symmetry_equiv_pos_site_id
 _symmetry_equiv_pos_as_xyz
  1  'x, y, z'
loop_
 _atom_site_type_symbol
 _atom_site_label
 _atom_site_symmetry_multiplicity
 _atom_site_fract_x
 _atom_site_fract_y
 _atom_site_fract_z
 _atom_site_occupancy
  Si  Si0  1  0.04660000  0.16660000  0.91230000  1
  Si  Si1  1  0.45340000  0.16660000  0.91230000  1
  Si  Si2  1  0.04660000  0.33340000  0.91230000  1
  Si  Si3  1  0.45340000  0.33340000  0.91230000  1
  Si  Si4  1  0.95340000  0.83340000  0.08770000  1
  Si  Si5  1  0.54660000  0.83340000  0.08770000  1
  Si  Si6  1  0.95340000  0.66660000  0.08770000  1
  Si  Si7  1  0.54660000  0.66660000  0.08770000  1
  Si  Si8  1  0.04710000  0.97540000  0.14450000  1
  Si  Si9  1  0.45290000  0.97540000  0.14450000  1
  Si  Si10  1  0.04710000  0.52460000  0.14450000  1
  Si  Si11  1  0.45290000  0.52460000  0.14450000  1
  Si  Si12  1  0.95290000  0.02460000  0.85550000  1
  Si  Si13  1  0.54710000  0.02460000  0.85550000  1
  Si  Si14  1  0.95290000  0.47540000  0.85550000  1
  Si  Si15  1  0.54710000  0.47540000  0.85550000  1
  Si  Si16  1  0.04600000  0.05870000  0.24630000  1
  Si  Si17  1  0.45400000  0.05870000  0.24630000  1
  Si  Si18  1  0.04600000  0.44130000  0.24630000  1
  Si  Si19  1  0.45400000  0.44130000  0.24630000  1
  Si  Si20  1  0.95400000  0.94130000  0.75370000  1
  Si  Si21  1  0.54600000  0.94130000  0.75370000  1
  Si  Si22  1  0.95400000  0.55870000  0.75370000  1
  Si  Si23  1  0.54600000  0.55870000  0.75370000  1
  Si  Si24  1  0.95470000  0.05490000  0.36140000  1
  Si  Si25  1  0.54530000  0.05490000  0.36140000  1
  Si  Si26  1  0.95470000  0.44510000  0.36140000  1
  Si  Si27  1  0.54530000  0.44510000  0.36140000  1
  Si  Si28  1  0.04530000  0.94510000  0.63860000  1
  Si  Si29  1  0.45470000  0.94510000  0.63860000  1
  Si  Si30  1  0.04530000  0.55490000  0.63860000  1
  Si  Si31  1  0.45470000  0.55490000  0.63860000  1
  Si  Si32  1  0.04590000  0.94650000  0.45250000  1
  Si  Si33  1  0.45410000  0.94650000  0.45250000  1
  Si  Si34  1  0.04590000  0.55350000  0.45250000  1
  Si  Si35  1  0.45410000  0.55350000  0.45250000  1
  Si  Si36  1  0.95410000  0.05350000  0.54750000  1
  Si  Si37  1  0.54590000  0.05350000  0.54750000  1
  Si  Si38  1  0.95410000  0.44650000  0.54750000  1
  Si  Si39  1  0.54590000  0.44650000  0.54750000  1
  Si  Si40  1  0.75000000  0.16550000  0.99560000  1
  Si  Si41  1  0.75000000  0.33450000  0.99560000  1
  Si  Si42  1  0.25000000  0.83450000  0.00440000  1
  Si  Si43  1  0.25000000  0.66550000  0.00440000  1
  Si  Si44  1  0.75000000  0.07880000  0.10240000  1
  Si  Si45  1  0.75000000  0.42120000  0.10240000  1
  Si  Si46  1  0.25000000  0.92120000  0.89760000  1
  Si  Si47  1  0.25000000  0.57880000  0.89760000  1
  Si  Si48  1  0.75000000  0.16260000  0.20410000  1
  Si  Si49  1  0.75000000  0.33740000  0.20410000  1
  Si  Si50  1  0.25000000  0.83740000  0.79590000  1
  Si  Si51  1  0.25000000  0.66260000  0.79590000  1
  Si  Si52  1  0.25000000  0.16430000  0.39700000  1
  Si  Si53  1  0.25000000  0.33570000  0.39700000  1
  Si  Si54  1  0.75000000  0.83570000  0.60300000  1
  Si  Si55  1  0.75000000  0.66430000  0.60300000  1
  Si  Si56  1  0.25000000  0.16440000  0.52050000  1
  Si  Si57  1  0.25000000  0.33560000  0.52050000  1
  Si  Si58  1  0.75000000  0.83560000  0.47950000  1
  Si  Si59  1  0.75000000  0.66440000  0.47950000  1
