# generated using pymatgen
data_O2
_symmetry_space_group_name_H-M   'P 1'
_cell_length_a   7.57100000
_cell_length_b   18.14800000
_cell_length_c   25.93200000
_cell_angle_alpha   90.00000000
_cell_angle_beta   90.00000000
_cell_angle_gamma   90.00000000
_symmetry_Int_Tables_number   1
_chemical_formula_structural   O2
_chemical_formula_sum   O120
_cell_volume   3563.01810946
_cell_formula_units_Z   60
loop_
 _symmetry_equiv_pos_site_id
 _symmetry_equiv_pos_as_xyz
  1  'x, y, z'
loop_
 _atom_site_type_symbol
 _atom_site_label
 _atom_site_symmetry_multiplicity
 _atom_site_fract_x
 _atom_site_fract_y
 _atom_site_fract_z
 _atom_site_occupancy
  O  O0  1  0.57670000  0.14950000  0.96140000  1
  O  O1  1  0.92330000  0.14950000  0.96140000  1
  O  O2  1  0.57670000  0.35050000  0.96140000  1
  O  O3  1  0.92330000  0.35050000  0.96140000  1
  O  O4  1  0.42330000  0.85050000  0.03860000  1
  O  O5  1  0.07670000  0.85050000  0.03860000  1
  O  O6  1  0.42330000  0.64950000  0.03860000  1
  O  O7  1  0.07670000  0.64950000  0.03860000  1
  O  O8  1  0.75000000  0.11120000  0.04460000  1
  O  O9  1  0.75000000  0.38880000  0.04460000  1
  O  O10  1  0.25000000  0.88880000  0.95540000  1
  O  O11  1  0.25000000  0.61120000  0.95540000  1
  O  O12  1  0.75000000  0.25000000  0.01450000  1
  O  O13  1  0.25000000  0.75000000  0.98550000  1
  O  O14  1  0.57670000  0.02880000  0.11060000  1
  O  O15  1  0.92330000  0.02880000  0.11060000  1
  O  O16  1  0.57670000  0.47120000  0.11060000  1
  O  O17  1  0.92330000  0.47120000  0.11060000  1
  O  O18  1  0.42330000  0.97120000  0.88940000  1
  O  O19  1  0.07670000  0.97120000  0.88940000  1
  O  O20  1  0.42330000  0.52880000  0.88940000  1
  O  O21  1  0.07670000  0.52880000  0.88940000  1
  O  O22  1  0.75000000  0.14570000  0.14320000  1
  O  O23  1  0.75000000  0.35430000  0.14320000  1
  O  O24  1  0.25000000  0.85430000  0.85680000  1
  O  O25  1  0.25000000  0.64570000  0.85680000  1
  O  O26  1  0.57590000  0.12750000  0.22990000  1
  O  O27  1  0.92410000  0.12750000  0.22990000  1
  O  O28  1  0.57590000  0.37250000  0.22990000  1
  O  O29  1  0.92410000  0.37250000  0.22990000  1
  O  O30  1  0.42410000  0.87250000  0.77010000  1
  O  O31  1  0.07590000  0.87250000  0.77010000  1
  O  O32  1  0.42410000  0.62750000  0.77010000  1
  O  O33  1  0.07590000  0.62750000  0.77010000  1
  O  O34  1  0.75000000  0.25000000  0.21420000  1
  O  O35  1  0.25000000  0.75000000  0.78580000  1
  O  O36  1  0.25000000  0.15700000  0.92910000  1
  O  O37  1  0.25000000  0.34300000  0.92910000  1
  O  O38  1  0.75000000  0.84300000  0.07090000  1
  O  O39  1  0.75000000  0.65700000  0.07090000  1
  O  O40  1  0.00250000  0.10950000  0.86660000  1
  O  O41  1  0.49750000  0.10950000  0.86660000  1
  O  O42  1  0.00250000  0.39050000  0.86660000  1
  O  O43  1  0.49750000  0.39050000  0.86660000  1
  O  O44  1  0.99750000  0.89050000  0.13340000  1
  O  O45  1  0.50250000  0.89050000  0.13340000  1
  O  O46  1  0.99750000  0.60950000  0.13340000  1
  O  O47  1  0.50250000  0.60950000  0.13340000  1
  O  O48  1  0.01420000  0.25000000  0.89340000  1
  O  O49  1  0.48580000  0.25000000  0.89340000  1
  O  O50  1  0.98580000  0.75000000  0.10660000  1
  O  O51  1  0.51420000  0.75000000  0.10660000  1
  O  O52  1  0.02170000  0.99350000  0.20480000  1
  O  O53  1  0.47830000  0.99350000  0.20480000  1
  O  O54  1  0.02170000  0.50650000  0.20480000  1
  O  O55  1  0.47830000  0.50650000  0.20480000  1
  O  O56  1  0.97830000  0.00650000  0.79520000  1
  O  O57  1  0.52170000  0.00650000  0.79520000  1
  O  O58  1  0.97830000  0.49350000  0.79520000  1
  O  O59  1  0.52170000  0.49350000  0.79520000  1
  O  O60  1  0.25000000  0.98930000  0.12860000  1
  O  O61  1  0.25000000  0.51070000  0.12860000  1
  O  O62  1  0.75000000  0.01070000  0.87140000  1
  O  O63  1  0.75000000  0.48930000  0.87140000  1
  O  O64  1  0.25000000  0.08360000  0.24810000  1
  O  O65  1  0.25000000  0.41640000  0.24810000  1
  O  O66  1  0.75000000  0.91640000  0.75190000  1
  O  O67  1  0.75000000  0.58360000  0.75190000  1
  O  O68  1  0.98560000  0.03020000  0.30240000  1
  O  O69  1  0.51440000  0.03020000  0.30240000  1
  O  O70  1  0.98560000  0.46980000  0.30240000  1
  O  O71  1  0.51440000  0.46980000  0.30240000  1
  O  O72  1  0.01440000  0.96980000  0.69760000  1
  O  O73  1  0.48560000  0.96980000  0.69760000  1
  O  O74  1  0.01440000  0.53020000  0.69760000  1
  O  O75  1  0.48560000  0.53020000  0.69760000  1
  O  O76  1  0.07610000  0.12550000  0.37380000  1
  O  O77  1  0.42390000  0.12550000  0.37380000  1
  O  O78  1  0.07610000  0.37450000  0.37380000  1
  O  O79  1  0.42390000  0.37450000  0.37380000  1
  O  O80  1  0.92390000  0.87450000  0.62620000  1
  O  O81  1  0.57610000  0.87450000  0.62620000  1
  O  O82  1  0.92390000  0.62550000  0.62620000  1
  O  O83  1  0.57610000  0.62550000  0.62620000  1
  O  O84  1  0.25000000  0.25000000  0.38110000  1
  O  O85  1  0.75000000  0.75000000  0.61890000  1
  O  O86  1  0.25000000  0.15640000  0.45880000  1
  O  O87  1  0.25000000  0.34360000  0.45880000  1
  O  O88  1  0.75000000  0.84360000  0.54120000  1
  O  O89  1  0.75000000  0.65640000  0.54120000  1
  O  O90  1  0.07640000  0.12600000  0.54420000  1
  O  O91  1  0.42360000  0.12600000  0.54420000  1
  O  O92  1  0.07640000  0.37400000  0.54420000  1
  O  O93  1  0.42360000  0.37400000  0.54420000  1
  O  O94  1  0.92360000  0.87400000  0.45580000  1
  O  O95  1  0.57640000  0.87400000  0.45580000  1
  O  O96  1  0.92360000  0.62600000  0.45580000  1
  O  O97  1  0.57640000  0.62600000  0.45580000  1
  O  O98  1  0.25000000  0.25000000  0.53660000  1
  O  O99  1  0.75000000  0.75000000  0.46340000  1
  O  O100  1  0.00950000  0.98790000  0.39880000  1
  O  O101  1  0.49050000  0.98790000  0.39880000  1
  O  O102  1  0.00950000  0.51210000  0.39880000  1
  O  O103  1  0.49050000  0.51210000  0.39880000  1
  O  O104  1  0.99050000  0.01210000  0.60120000  1
  O  O105  1  0.50950000  0.01210000  0.60120000  1
  O  O106  1  0.99050000  0.48790000  0.60120000  1
  O  O107  1  0.50950000  0.48790000  0.60120000  1
  O  O108  1  0.75000000  0.07540000  0.37010000  1
  O  O109  1  0.75000000  0.42460000  0.37010000  1
  O  O110  1  0.25000000  0.92460000  0.62990000  1
  O  O111  1  0.25000000  0.57540000  0.62990000  1
  O  O112  1  0.25000000  0.92210000  0.45560000  1
  O  O113  1  0.25000000  0.57790000  0.45560000  1
  O  O114  1  0.75000000  0.07790000  0.54440000  1
  O  O115  1  0.75000000  0.42210000  0.54440000  1
  O  O116  1  0.00000000  0.00000000  0.50000000  1
  O  O117  1  0.50000000  0.00000000  0.50000000  1
  O  O118  1  0.00000000  0.50000000  0.50000000  1
  O  O119  1  0.50000000  0.50000000  0.50000000  1
