# generated using pymatgen
data_SiO4
_symmetry_space_group_name_H-M   'P 1'
_cell_length_a   7.57100000
_cell_length_b   18.14800000
_cell_length_c   25.93200000
_cell_angle_alpha   90.00000000
_cell_angle_beta   90.00000000
_cell_angle_gamma   90.00000000
_symmetry_Int_Tables_number   1
_chemical_formula_structural   SiO4
_chemical_formula_sum   'Si1 O4'
_cell_volume   3563.01810946
_cell_formula_units_Z   1
loop_
 _symmetry_equiv_pos_site_id
 _symmetry_equiv_pos_as_xyz
  1  'x, y, z'
loop_
 _atom_site_type_symbol
 _atom_site_label
 _atom_site_symmetry_multiplicity
 _atom_site_fract_x
 _atom_site_fract_y
 _atom_site_fract_z
 _atom_site_occupancy
  Si  Si0  1  0.04530000  0.94510000  0.63860000  1
  O  O1  1  0.01440000  0.96980000  0.69760000  1
  O  O2  1  -0.07610000  0.87450000  0.62620000  1
  O  O3  1  -0.00950000  1.01210000  0.60120000  1
  O  O4  1  0.25000000  0.92460000  0.62990000  1
