# generated using pymatgen
data_SiO4
_symmetry_space_group_name_H-M   'P 1'
_cell_length_a   7.57100000
_cell_length_b   18.14800000
_cell_length_c   25.93200000
_cell_angle_alpha   90.00000000
_cell_angle_beta   90.00000000
_cell_angle_gamma   90.00000000
_symmetry_Int_Tables_number   1
_chemical_formula_structural   SiO4
_chemical_formula_sum   'Si1 O4'
_cell_volume   3563.01810946
_cell_formula_units_Z   1
loop_
 _symmetry_equiv_pos_site_id
 _symmetry_equiv_pos_as_xyz
  1  'x, y, z'
loop_
 _atom_site_type_symbol
 _atom_site_label
 _atom_site_symmetry_multiplicity
 _atom_site_fract_x
 _atom_site_fract_y
 _atom_site_fract_z
 _atom_site_occupancy
  Si  Si0  1  0.04710000  0.97540000  0.14450000  1
  O  O1  1  -0.07670000  1.02880000  0.11060000  1
  O  O2  1  -0.00250000  0.89050000  0.13340000  1
  O  O3  1  0.02170000  0.99350000  0.20480000  1
  O  O4  1  0.25000000  0.98930000  0.12860000  1
