# generated using pymatgen
data_SiO4
_symmetry_space_group_name_H-M   'P 1'
_cell_length_a   7.57100000
_cell_length_b   18.14800000
_cell_length_c   25.93200000
_cell_angle_alpha   90.00000000
_cell_angle_beta   90.00000000
_cell_angle_gamma   90.00000000
_symmetry_Int_Tables_number   1
_chemical_formula_structural   SiO4
_chemical_formula_sum   'Si1 O4'
_cell_volume   3563.01810946
_cell_formula_units_Z   1
loop_
 _symmetry_equiv_pos_site_id
 _symmetry_equiv_pos_as_xyz
  1  'x, y, z'
loop_
 _atom_site_type_symbol
 _atom_site_label
 _atom_site_symmetry_multiplicity
 _atom_site_fract_x
 _atom_site_fract_y
 _atom_site_fract_z
 _atom_site_occupancy
  Si  Si0  1  0.04590000  0.55350000  0.45250000  1
  O  O1  1  -0.07640000  0.62600000  0.45580000  1
  O  O2  1  0.00950000  0.51210000  0.39880000  1
  O  O3  1  0.25000000  0.57790000  0.45560000  1
  O  O4  1  0.00000000  0.50000000  0.50000000  1
