# generated using pymatgen
data_SiO4
_symmetry_space_group_name_H-M   'P 1'
_cell_length_a   14.09800000
_cell_length_b   13.67000000
_cell_length_c   7.43100000
_cell_angle_alpha   90.00000000
_cell_angle_beta   102.42100000
_cell_angle_gamma   90.00000000
_symmetry_Int_Tables_number   1
_chemical_formula_structural   SiO4
_chemical_formula_sum   'Si1 O4'
_cell_volume   1398.57936128
_cell_formula_units_Z   1
loop_
 _symmetry_equiv_pos_site_id
 _symmetry_equiv_pos_as_xyz
  1  'x, y, z'
loop_
 _atom_site_type_symbol
 _atom_site_label
 _atom_site_symmetry_multiplicity
 _atom_site_fract_x
 _atom_site_fract_y
 _atom_site_fract_z
 _atom_site_occupancy
  Si  Si0  1  0.89990000  0.61240000  0.55290000  1
  O  O1  1  0.81210000  0.62360000  0.37550000  1
  O  O2  1  1.00000000  0.64560000  0.50000000  1
  O  O3  1  0.87890000  0.68070000  0.71650000  1
  O  O4  1  0.90820000  0.50000000  0.61920000  1
