# generated using pymatgen
data_O2
_symmetry_space_group_name_H-M   'P 1'
_cell_length_a   14.09800000
_cell_length_b   13.67000000
_cell_length_c   7.43100000
_cell_angle_alpha   90.00000000
_cell_angle_beta   102.42100000
_cell_angle_gamma   90.00000000
_symmetry_Int_Tables_number   1
_chemical_formula_structural   O2
_chemical_formula_sum   O48
_cell_volume   1398.57936128
_cell_formula_units_Z   24
loop_
 _symmetry_equiv_pos_site_id
 _symmetry_equiv_pos_as_xyz
  1  'x, y, z'
loop_
 _atom_site_type_symbol
 _atom_site_label
 _atom_site_symmetry_multiplicity
 _atom_site_fract_x
 _atom_site_fract_y
 _atom_site_fract_z
 _atom_site_occupancy
  O  O0  1  0.68790000  0.12360000  0.62450000  1
  O  O1  1  0.18790000  0.62360000  0.62450000  1
  O  O2  1  0.31210000  0.12360000  0.37550000  1
  O  O3  1  0.81210000  0.62360000  0.37550000  1
  O  O4  1  0.31210000  0.87640000  0.37550000  1
  O  O5  1  0.81210000  0.37640000  0.37550000  1
  O  O6  1  0.68790000  0.87640000  0.62450000  1
  O  O7  1  0.18790000  0.37640000  0.62450000  1
  O  O8  1  0.50000000  0.14560000  0.50000000  1
  O  O9  1  0.00000000  0.64560000  0.50000000  1
  O  O10  1  0.50000000  0.85440000  0.50000000  1
  O  O11  1  0.00000000  0.35440000  0.50000000  1
  O  O12  1  0.62110000  0.18070000  0.28350000  1
  O  O13  1  0.12110000  0.68070000  0.28350000  1
  O  O14  1  0.37890000  0.18070000  0.71650000  1
  O  O15  1  0.87890000  0.68070000  0.71650000  1
  O  O16  1  0.37890000  0.81930000  0.71650000  1
  O  O17  1  0.87890000  0.31930000  0.71650000  1
  O  O18  1  0.62110000  0.81930000  0.28350000  1
  O  O19  1  0.12110000  0.31930000  0.28350000  1
  O  O20  1  0.59180000  0.00000000  0.38080000  1
  O  O21  1  0.09180000  0.50000000  0.38080000  1
  O  O22  1  0.40820000  0.00000000  0.61920000  1
  O  O23  1  0.90820000  0.50000000  0.61920000  1
  O  O24  1  0.64110000  0.14340000  0.94660000  1
  O  O25  1  0.14110000  0.64340000  0.94660000  1
  O  O26  1  0.35890000  0.14340000  0.05340000  1
  O  O27  1  0.85890000  0.64340000  0.05340000  1
  O  O28  1  0.35890000  0.85660000  0.05340000  1
  O  O29  1  0.85890000  0.35660000  0.05340000  1
  O  O30  1  0.64110000  0.85660000  0.94660000  1
  O  O31  1  0.14110000  0.35660000  0.94660000  1
  O  O32  1  0.81930000  0.18120000  0.91230000  1
  O  O33  1  0.31930000  0.68120000  0.91230000  1
  O  O34  1  0.18070000  0.18120000  0.08770000  1
  O  O35  1  0.68070000  0.68120000  0.08770000  1
  O  O36  1  0.18070000  0.81880000  0.08770000  1
  O  O37  1  0.68070000  0.31880000  0.08770000  1
  O  O38  1  0.81930000  0.81880000  0.91230000  1
  O  O39  1  0.31930000  0.31880000  0.91230000  1
  O  O40  1  0.75590000  0.00000000  0.89210000  1
  O  O41  1  0.25590000  0.50000000  0.89210000  1
  O  O42  1  0.24410000  0.00000000  0.10790000  1
  O  O43  1  0.74410000  0.50000000  0.10790000  1
  O  O44  1  0.50000000  0.25790000  0.00000000  1
  O  O45  1  0.00000000  0.75790000  0.00000000  1
  O  O46  1  0.50000000  0.74210000  0.00000000  1
  O  O47  1  0.00000000  0.24210000  0.00000000  1
