# generated using pymatgen
data_SiO4
_symmetry_space_group_name_H-M   'P 1'
_cell_length_a   8.22809000
_cell_length_b   22.45626000
_cell_length_c   37.89111000
_cell_angle_alpha   90.00000000
_cell_angle_beta   90.00000000
_cell_angle_gamma   90.00000000
_symmetry_Int_Tables_number   1
_chemical_formula_structural   SiO4
_chemical_formula_sum   'Si1 O4'
_cell_volume   7001.22103999
_cell_formula_units_Z   1
loop_
 _symmetry_equiv_pos_site_id
 _symmetry_equiv_pos_as_xyz
  1  'x, y, z'
loop_
 _atom_site_type_symbol
 _atom_site_label
 _atom_site_symmetry_multiplicity
 _atom_site_fract_x
 _atom_site_fract_y
 _atom_site_fract_z
 _atom_site_occupancy
  Si  Si0  1  0.31086000  0.66837000  0.37852000  1
  O  O1  1  0.29032000  0.64921000  0.41923000  1
  O  O2  1  0.24101000  0.61606000  0.35369000  1
  O  O3  1  0.21139000  0.72877000  0.37098000  1
  O  O4  1  0.50000000  0.67900000  0.36974000  1
