# generated using pymatgen
data_O2
_symmetry_space_group_name_H-M   'P 1'
_cell_length_a   8.22809000
_cell_length_b   22.45626000
_cell_length_c   37.89111000
_cell_angle_alpha   90.00000000
_cell_angle_beta   90.00000000
_cell_angle_gamma   90.00000000
_symmetry_Int_Tables_number   1
_chemical_formula_structural   O2
_chemical_formula_sum   O288
_cell_volume   7001.22103999
_cell_formula_units_Z   144
loop_
 _symmetry_equiv_pos_site_id
 _symmetry_equiv_pos_as_xyz
  1  'x, y, z'
loop_
 _atom_site_type_symbol
 _atom_site_label
 _atom_site_symmetry_multiplicity
 _atom_site_fract_x
 _atom_site_fract_y
 _atom_site_fract_z
 _atom_site_occupancy
  O  O0  1  0.25730000  0.04249000  0.05262000  1
  O  O1  1  0.25730000  0.95751000  0.94738000  1
  O  O2  1  0.25730000  0.45751000  0.55262000  1
  O  O3  1  0.25730000  0.54249000  0.44738000  1
  O  O4  1  0.74270000  0.95751000  0.94738000  1
  O  O5  1  0.74270000  0.04249000  0.05262000  1
  O  O6  1  0.74270000  0.54249000  0.44738000  1
  O  O7  1  0.74270000  0.45751000  0.55262000  1
  O  O8  1  0.75730000  0.54249000  0.05262000  1
  O  O9  1  0.75730000  0.45751000  0.94738000  1
  O  O10  1  0.75730000  0.95751000  0.55262000  1
  O  O11  1  0.75730000  0.04249000  0.44738000  1
  O  O12  1  0.24270000  0.45751000  0.94738000  1
  O  O13  1  0.24270000  0.54249000  0.05262000  1
  O  O14  1  0.24270000  0.04249000  0.44738000  1
  O  O15  1  0.24270000  0.95751000  0.55262000  1
  O  O16  1  0.20341000  0.13727000  0.01419000  1
  O  O17  1  0.20341000  0.86273000  0.98581000  1
  O  O18  1  0.20341000  0.36273000  0.51419000  1
  O  O19  1  0.20341000  0.63727000  0.48581000  1
  O  O20  1  0.79659000  0.86273000  0.98581000  1
  O  O21  1  0.79659000  0.13727000  0.01419000  1
  O  O22  1  0.79659000  0.63727000  0.48581000  1
  O  O23  1  0.79659000  0.36273000  0.51419000  1
  O  O24  1  0.70341000  0.63727000  0.01419000  1
  O  O25  1  0.70341000  0.36273000  0.98581000  1
  O  O26  1  0.70341000  0.86273000  0.51419000  1
  O  O27  1  0.70341000  0.13727000  0.48581000  1
  O  O28  1  0.29659000  0.36273000  0.98581000  1
  O  O29  1  0.29659000  0.63727000  0.01419000  1
  O  O30  1  0.29659000  0.13727000  0.48581000  1
  O  O31  1  0.29659000  0.86273000  0.51419000  1
  O  O32  1  0.29032000  0.14921000  0.08077000  1
  O  O33  1  0.29032000  0.85079000  0.91923000  1
  O  O34  1  0.29032000  0.35079000  0.58077000  1
  O  O35  1  0.29032000  0.64921000  0.41923000  1
  O  O36  1  0.70968000  0.85079000  0.91923000  1
  O  O37  1  0.70968000  0.14921000  0.08077000  1
  O  O38  1  0.70968000  0.64921000  0.41923000  1
  O  O39  1  0.70968000  0.35079000  0.58077000  1
  O  O40  1  0.79032000  0.64921000  0.08077000  1
  O  O41  1  0.79032000  0.35079000  0.91923000  1
  O  O42  1  0.79032000  0.85079000  0.58077000  1
  O  O43  1  0.79032000  0.14921000  0.41923000  1
  O  O44  1  0.20968000  0.35079000  0.91923000  1
  O  O45  1  0.20968000  0.64921000  0.08077000  1
  O  O46  1  0.20968000  0.14921000  0.41923000  1
  O  O47  1  0.20968000  0.85079000  0.58077000  1
  O  O48  1  0.00000000  0.10858000  0.06507000  1
  O  O49  1  0.00000000  0.89142000  0.93493000  1
  O  O50  1  0.00000000  0.39142000  0.56507000  1
  O  O51  1  0.00000000  0.60858000  0.43493000  1
  O  O52  1  0.50000000  0.60858000  0.06507000  1
  O  O53  1  0.50000000  0.39142000  0.93493000  1
  O  O54  1  0.50000000  0.89142000  0.56507000  1
  O  O55  1  0.50000000  0.10858000  0.43493000  1
  O  O56  1  0.24101000  0.11606000  0.14631000  1
  O  O57  1  0.24101000  0.88394000  0.85369000  1
  O  O58  1  0.24101000  0.38394000  0.64631000  1
  O  O59  1  0.24101000  0.61606000  0.35369000  1
  O  O60  1  0.75899000  0.88394000  0.85369000  1
  O  O61  1  0.75899000  0.11606000  0.14631000  1
  O  O62  1  0.75899000  0.61606000  0.35369000  1
  O  O63  1  0.75899000  0.38394000  0.64631000  1
  O  O64  1  0.74101000  0.61606000  0.14631000  1
  O  O65  1  0.74101000  0.38394000  0.85369000  1
  O  O66  1  0.74101000  0.88394000  0.64631000  1
  O  O67  1  0.74101000  0.11606000  0.35369000  1
  O  O68  1  0.25899000  0.38394000  0.85369000  1
  O  O69  1  0.25899000  0.61606000  0.14631000  1
  O  O70  1  0.25899000  0.11606000  0.35369000  1
  O  O71  1  0.25899000  0.88394000  0.64631000  1
  O  O72  1  0.30277000  0.01152000  0.11844000  1
  O  O73  1  0.30277000  0.98848000  0.88156000  1
  O  O74  1  0.30277000  0.48848000  0.61844000  1
  O  O75  1  0.30277000  0.51152000  0.38156000  1
  O  O76  1  0.69723000  0.98848000  0.88156000  1
  O  O77  1  0.69723000  0.01152000  0.11844000  1
  O  O78  1  0.69723000  0.51152000  0.38156000  1
  O  O79  1  0.69723000  0.48848000  0.61844000  1
  O  O80  1  0.80277000  0.51152000  0.11844000  1
  O  O81  1  0.80277000  0.48848000  0.88156000  1
  O  O82  1  0.80277000  0.98848000  0.61844000  1
  O  O83  1  0.80277000  0.01152000  0.38156000  1
  O  O84  1  0.19723000  0.48848000  0.88156000  1
  O  O85  1  0.19723000  0.51152000  0.11844000  1
  O  O86  1  0.19723000  0.01152000  0.38156000  1
  O  O87  1  0.19723000  0.98848000  0.61844000  1
  O  O88  1  0.20289000  0.01796000  0.18373000  1
  O  O89  1  0.20289000  0.98204000  0.81627000  1
  O  O90  1  0.20289000  0.48204000  0.68373000  1
  O  O91  1  0.20289000  0.51796000  0.31627000  1
  O  O92  1  0.79711000  0.98204000  0.81627000  1
  O  O93  1  0.79711000  0.01796000  0.18373000  1
  O  O94  1  0.79711000  0.51796000  0.31627000  1
  O  O95  1  0.79711000  0.48204000  0.68373000  1
  O  O96  1  0.70289000  0.51796000  0.18373000  1
  O  O97  1  0.70289000  0.48204000  0.81627000  1
  O  O98  1  0.70289000  0.98204000  0.68373000  1
  O  O99  1  0.70289000  0.01796000  0.31627000  1
  O  O100  1  0.29711000  0.48204000  0.81627000  1
  O  O101  1  0.29711000  0.51796000  0.18373000  1
  O  O102  1  0.29711000  0.01796000  0.31627000  1
  O  O103  1  0.29711000  0.98204000  0.68373000  1
  O  O104  1  0.00000000  0.04271000  0.13218000  1
  O  O105  1  0.00000000  0.95729000  0.86782000  1
  O  O106  1  0.00000000  0.45729000  0.63218000  1
  O  O107  1  0.00000000  0.54271000  0.36782000  1
  O  O108  1  0.50000000  0.54271000  0.13218000  1
  O  O109  1  0.50000000  0.45729000  0.86782000  1
  O  O110  1  0.50000000  0.95729000  0.63218000  1
  O  O111  1  0.50000000  0.04271000  0.36782000  1
  O  O112  1  0.25000000  0.25000000  0.00000000  1
  O  O113  1  0.25000000  0.75000000  0.00000000  1
  O  O114  1  0.25000000  0.25000000  0.50000000  1
  O  O115  1  0.25000000  0.75000000  0.50000000  1
  O  O116  1  0.75000000  0.75000000  0.00000000  1
  O  O117  1  0.75000000  0.25000000  0.00000000  1
  O  O118  1  0.75000000  0.75000000  0.50000000  1
  O  O119  1  0.75000000  0.25000000  0.50000000  1
  O  O120  1  0.00000000  0.32236000  0.99502000  1
  O  O121  1  0.00000000  0.67764000  0.00498000  1
  O  O122  1  0.00000000  0.17764000  0.49502000  1
  O  O123  1  0.00000000  0.82236000  0.50498000  1
  O  O124  1  0.50000000  0.82236000  0.99502000  1
  O  O125  1  0.50000000  0.17764000  0.00498000  1
  O  O126  1  0.50000000  0.67764000  0.49502000  1
  O  O127  1  0.50000000  0.32236000  0.50498000  1
  O  O128  1  0.19835000  0.32971000  0.04927000  1
  O  O129  1  0.19835000  0.67029000  0.95073000  1
  O  O130  1  0.19835000  0.17029000  0.54927000  1
  O  O131  1  0.19835000  0.82971000  0.45073000  1
  O  O132  1  0.80165000  0.67029000  0.95073000  1
  O  O133  1  0.80165000  0.32971000  0.04927000  1
  O  O134  1  0.80165000  0.82971000  0.45073000  1
  O  O135  1  0.80165000  0.17029000  0.54927000  1
  O  O136  1  0.69835000  0.82971000  0.04927000  1
  O  O137  1  0.69835000  0.17029000  0.95073000  1
  O  O138  1  0.69835000  0.67029000  0.54927000  1
  O  O139  1  0.69835000  0.32971000  0.45073000  1
  O  O140  1  0.30165000  0.17029000  0.95073000  1
  O  O141  1  0.30165000  0.82971000  0.04927000  1
  O  O142  1  0.30165000  0.32971000  0.45073000  1
  O  O143  1  0.30165000  0.67029000  0.54927000  1
  O  O144  1  0.21139000  0.22877000  0.12902000  1
  O  O145  1  0.21139000  0.77123000  0.87098000  1
  O  O146  1  0.21139000  0.27123000  0.62902000  1
  O  O147  1  0.21139000  0.72877000  0.37098000  1
  O  O148  1  0.78861000  0.77123000  0.87098000  1
  O  O149  1  0.78861000  0.22877000  0.12902000  1
  O  O150  1  0.78861000  0.72877000  0.37098000  1
  O  O151  1  0.78861000  0.27123000  0.62902000  1
  O  O152  1  0.71139000  0.72877000  0.12902000  1
  O  O153  1  0.71139000  0.27123000  0.87098000  1
  O  O154  1  0.71139000  0.77123000  0.62902000  1
  O  O155  1  0.71139000  0.22877000  0.37098000  1
  O  O156  1  0.28861000  0.27123000  0.87098000  1
  O  O157  1  0.28861000  0.72877000  0.12902000  1
  O  O158  1  0.28861000  0.22877000  0.37098000  1
  O  O159  1  0.28861000  0.77123000  0.62902000  1
  O  O160  1  0.50000000  0.17900000  0.13026000  1
  O  O161  1  0.50000000  0.82100000  0.86974000  1
  O  O162  1  0.50000000  0.32100000  0.63026000  1
  O  O163  1  0.50000000  0.67900000  0.36974000  1
  O  O164  1  0.00000000  0.67900000  0.13026000  1
  O  O165  1  0.00000000  0.32100000  0.86974000  1
  O  O166  1  0.00000000  0.82100000  0.63026000  1
  O  O167  1  0.00000000  0.17900000  0.36974000  1
  O  O168  1  0.29115000  0.40957000  0.29757000  1
  O  O169  1  0.29115000  0.59043000  0.70243000  1
  O  O170  1  0.29115000  0.09043000  0.79757000  1
  O  O171  1  0.29115000  0.90957000  0.20243000  1
  O  O172  1  0.70885000  0.59043000  0.70243000  1
  O  O173  1  0.70885000  0.40957000  0.29757000  1
  O  O174  1  0.70885000  0.90957000  0.20243000  1
  O  O175  1  0.70885000  0.09043000  0.79757000  1
  O  O176  1  0.79115000  0.90957000  0.29757000  1
  O  O177  1  0.79115000  0.09043000  0.70243000  1
  O  O178  1  0.79115000  0.59043000  0.79757000  1
  O  O179  1  0.79115000  0.40957000  0.20243000  1
  O  O180  1  0.20885000  0.09043000  0.70243000  1
  O  O181  1  0.20885000  0.90957000  0.29757000  1
  O  O182  1  0.20885000  0.40957000  0.20243000  1
  O  O183  1  0.20885000  0.59043000  0.79757000  1
  O  O184  1  0.25000000  0.32603000  0.25000000  1
  O  O185  1  0.25000000  0.67397000  0.75000000  1
  O  O186  1  0.25000000  0.17397000  0.75000000  1
  O  O187  1  0.25000000  0.82603000  0.25000000  1
  O  O188  1  0.75000000  0.67397000  0.75000000  1
  O  O189  1  0.75000000  0.32603000  0.25000000  1
  O  O190  1  0.75000000  0.82603000  0.25000000  1
  O  O191  1  0.75000000  0.17397000  0.75000000  1
  O  O192  1  0.21729000  0.30120000  0.31807000  1
  O  O193  1  0.21729000  0.69880000  0.68193000  1
  O  O194  1  0.21729000  0.19880000  0.81807000  1
  O  O195  1  0.21729000  0.80120000  0.18193000  1
  O  O196  1  0.78271000  0.69880000  0.68193000  1
  O  O197  1  0.78271000  0.30120000  0.31807000  1
  O  O198  1  0.78271000  0.80120000  0.18193000  1
  O  O199  1  0.78271000  0.19880000  0.81807000  1
  O  O200  1  0.71729000  0.80120000  0.31807000  1
  O  O201  1  0.71729000  0.19880000  0.68193000  1
  O  O202  1  0.71729000  0.69880000  0.81807000  1
  O  O203  1  0.71729000  0.30120000  0.18193000  1
  O  O204  1  0.28271000  0.19880000  0.68193000  1
  O  O205  1  0.28271000  0.80120000  0.31807000  1
  O  O206  1  0.28271000  0.30120000  0.18193000  1
  O  O207  1  0.28271000  0.69880000  0.81807000  1
  O  O208  1  0.00000000  0.36739000  0.28544000  1
  O  O209  1  0.00000000  0.63261000  0.71456000  1
  O  O210  1  0.00000000  0.13261000  0.78544000  1
  O  O211  1  0.00000000  0.86739000  0.21456000  1
  O  O212  1  0.50000000  0.86739000  0.28544000  1
  O  O213  1  0.50000000  0.13261000  0.71456000  1
  O  O214  1  0.50000000  0.63261000  0.78544000  1
  O  O215  1  0.50000000  0.36739000  0.21456000  1
  O  O216  1  0.25000000  0.49372000  0.25000000  1
  O  O217  1  0.25000000  0.50628000  0.75000000  1
  O  O218  1  0.25000000  0.00628000  0.75000000  1
  O  O219  1  0.25000000  0.99372000  0.25000000  1
  O  O220  1  0.75000000  0.50628000  0.75000000  1
  O  O221  1  0.75000000  0.49372000  0.25000000  1
  O  O222  1  0.75000000  0.99372000  0.25000000  1
  O  O223  1  0.75000000  0.00628000  0.75000000  1
  O  O224  1  0.00000000  0.49813000  0.20670000  1
  O  O225  1  0.00000000  0.50187000  0.79330000  1
  O  O226  1  0.00000000  0.00187000  0.70670000  1
  O  O227  1  0.00000000  0.99813000  0.29330000  1
  O  O228  1  0.50000000  0.99813000  0.20670000  1
  O  O229  1  0.50000000  0.00187000  0.79330000  1
  O  O230  1  0.50000000  0.50187000  0.70670000  1
  O  O231  1  0.50000000  0.49813000  0.29330000  1
  O  O232  1  0.26166000  0.34279000  0.11717000  1
  O  O233  1  0.26166000  0.65721000  0.88283000  1
  O  O234  1  0.26166000  0.15721000  0.61717000  1
  O  O235  1  0.26166000  0.84279000  0.38283000  1
  O  O236  1  0.73834000  0.65721000  0.88283000  1
  O  O237  1  0.73834000  0.34279000  0.11717000  1
  O  O238  1  0.73834000  0.84279000  0.38283000  1
  O  O239  1  0.73834000  0.15721000  0.61717000  1
  O  O240  1  0.76166000  0.84279000  0.11717000  1
  O  O241  1  0.76166000  0.15721000  0.88283000  1
  O  O242  1  0.76166000  0.65721000  0.61717000  1
  O  O243  1  0.76166000  0.34279000  0.38283000  1
  O  O244  1  0.23834000  0.15721000  0.88283000  1
  O  O245  1  0.23834000  0.84279000  0.11717000  1
  O  O246  1  0.23834000  0.34279000  0.38283000  1
  O  O247  1  0.23834000  0.65721000  0.61717000  1
  O  O248  1  0.00000000  0.30858000  0.15085000  1
  O  O249  1  0.00000000  0.69142000  0.84915000  1
  O  O250  1  0.00000000  0.19142000  0.65085000  1
  O  O251  1  0.00000000  0.80858000  0.34915000  1
  O  O252  1  0.50000000  0.80858000  0.15085000  1
  O  O253  1  0.50000000  0.19142000  0.84915000  1
  O  O254  1  0.50000000  0.69142000  0.65085000  1
  O  O255  1  0.50000000  0.30858000  0.34915000  1
  O  O256  1  0.30192000  0.43235000  0.07301000  1
  O  O257  1  0.30192000  0.56765000  0.92699000  1
  O  O258  1  0.30192000  0.06765000  0.57301000  1
  O  O259  1  0.30192000  0.93235000  0.42699000  1
  O  O260  1  0.69808000  0.56765000  0.92699000  1
  O  O261  1  0.69808000  0.43235000  0.07301000  1
  O  O262  1  0.69808000  0.93235000  0.42699000  1
  O  O263  1  0.69808000  0.06765000  0.57301000  1
  O  O264  1  0.80192000  0.93235000  0.07301000  1
  O  O265  1  0.80192000  0.06765000  0.92699000  1
  O  O266  1  0.80192000  0.56765000  0.57301000  1
  O  O267  1  0.80192000  0.43235000  0.42699000  1
  O  O268  1  0.19808000  0.06765000  0.92699000  1
  O  O269  1  0.19808000  0.93235000  0.07301000  1
  O  O270  1  0.19808000  0.43235000  0.42699000  1
  O  O271  1  0.19808000  0.56765000  0.57301000  1
  O  O272  1  0.50000000  0.34080000  0.07110000  1
  O  O273  1  0.50000000  0.65920000  0.92890000  1
  O  O274  1  0.50000000  0.15920000  0.57110000  1
  O  O275  1  0.50000000  0.84080000  0.42890000  1
  O  O276  1  0.00000000  0.84080000  0.07110000  1
  O  O277  1  0.00000000  0.15920000  0.92890000  1
  O  O278  1  0.00000000  0.65920000  0.57110000  1
  O  O279  1  0.00000000  0.34080000  0.42890000  1
  O  O280  1  0.00000000  0.47142000  0.06929000  1
  O  O281  1  0.00000000  0.52858000  0.93071000  1
  O  O282  1  0.00000000  0.02858000  0.56929000  1
  O  O283  1  0.00000000  0.97142000  0.43071000  1
  O  O284  1  0.50000000  0.97142000  0.06929000  1
  O  O285  1  0.50000000  0.02858000  0.93071000  1
  O  O286  1  0.50000000  0.52858000  0.56929000  1
  O  O287  1  0.50000000  0.47142000  0.43071000  1
