# generated using pymatgen
data_Si
_symmetry_space_group_name_H-M   'P 1'
_cell_length_a   21.99500000
_cell_length_b   21.99500000
_cell_length_c   21.15900000
_cell_angle_alpha   90.00000000
_cell_angle_beta   90.00000000
_cell_angle_gamma   120.00000000
_symmetry_Int_Tables_number   1
_chemical_formula_structural   Si
_chemical_formula_sum   Si132
_cell_volume   8864.89718221
_cell_formula_units_Z   132
loop_
 _symmetry_equiv_pos_site_id
 _symmetry_equiv_pos_as_xyz
  1  'x, y, z'
loop_
 _atom_site_type_symbol
 _atom_site_label
 _atom_site_symmetry_multiplicity
 _atom_site_fract_x
 _atom_site_fract_y
 _atom_site_fract_z
 _atom_site_occupancy
  Si  Si0  1  0.07800000  0.29070000  0.74490000  1
  Si  Si1  1  0.70930000  0.78730000  0.74490000  1
  Si  Si2  1  0.21270000  0.92200000  0.74490000  1
  Si  Si3  1  0.92200000  0.70930000  0.74490000  1
  Si  Si4  1  0.29070000  0.21270000  0.74490000  1
  Si  Si5  1  0.78730000  0.07800000  0.74490000  1
  Si  Si6  1  0.70930000  0.92200000  0.74490000  1
  Si  Si7  1  0.21270000  0.29070000  0.74490000  1
  Si  Si8  1  0.07800000  0.78730000  0.74490000  1
  Si  Si9  1  0.29070000  0.07800000  0.74490000  1
  Si  Si10  1  0.78730000  0.70930000  0.74490000  1
  Si  Si11  1  0.92200000  0.21270000  0.74490000  1
  Si  Si12  1  0.92200000  0.70930000  0.25510000  1
  Si  Si13  1  0.29070000  0.21270000  0.25510000  1
  Si  Si14  1  0.78730000  0.07800000  0.25510000  1
  Si  Si15  1  0.07800000  0.29070000  0.25510000  1
  Si  Si16  1  0.70930000  0.78730000  0.25510000  1
  Si  Si17  1  0.21270000  0.92200000  0.25510000  1
  Si  Si18  1  0.29070000  0.07800000  0.25510000  1
  Si  Si19  1  0.78730000  0.70930000  0.25510000  1
  Si  Si20  1  0.92200000  0.21270000  0.25510000  1
  Si  Si21  1  0.70930000  0.92200000  0.25510000  1
  Si  Si22  1  0.21270000  0.29070000  0.25510000  1
  Si  Si23  1  0.07800000  0.78730000  0.25510000  1
  Si  Si24  1  0.71020000  0.55920000  0.31440000  1
  Si  Si25  1  0.44080000  0.15100000  0.31440000  1
  Si  Si26  1  0.84900000  0.28980000  0.31440000  1
  Si  Si27  1  0.28980000  0.44080000  0.31440000  1
  Si  Si28  1  0.55920000  0.84900000  0.31440000  1
  Si  Si29  1  0.15100000  0.71020000  0.31440000  1
  Si  Si30  1  0.44080000  0.28980000  0.31440000  1
  Si  Si31  1  0.84900000  0.55920000  0.31440000  1
  Si  Si32  1  0.71020000  0.15100000  0.31440000  1
  Si  Si33  1  0.55920000  0.71020000  0.31440000  1
  Si  Si34  1  0.15100000  0.44080000  0.31440000  1
  Si  Si35  1  0.28980000  0.84900000  0.31440000  1
  Si  Si36  1  0.28980000  0.44080000  0.68560000  1
  Si  Si37  1  0.55920000  0.84900000  0.68560000  1
  Si  Si38  1  0.15100000  0.71020000  0.68560000  1
  Si  Si39  1  0.71020000  0.55920000  0.68560000  1
  Si  Si40  1  0.44080000  0.15100000  0.68560000  1
  Si  Si41  1  0.84900000  0.28980000  0.68560000  1
  Si  Si42  1  0.55920000  0.71020000  0.68560000  1
  Si  Si43  1  0.15100000  0.44080000  0.68560000  1
  Si  Si44  1  0.28980000  0.84900000  0.68560000  1
  Si  Si45  1  0.44080000  0.28980000  0.68560000  1
  Si  Si46  1  0.84900000  0.55920000  0.68560000  1
  Si  Si47  1  0.71020000  0.15100000  0.68560000  1
  Si  Si48  1  0.08080000  0.47030000  0.79750000  1
  Si  Si49  1  0.52970000  0.61050000  0.79750000  1
  Si  Si50  1  0.38950000  0.91920000  0.79750000  1
  Si  Si51  1  0.91920000  0.52970000  0.79750000  1
  Si  Si52  1  0.47030000  0.38950000  0.79750000  1
  Si  Si53  1  0.61050000  0.08080000  0.79750000  1
  Si  Si54  1  0.52970000  0.91920000  0.79750000  1
  Si  Si55  1  0.38950000  0.47030000  0.79750000  1
  Si  Si56  1  0.08080000  0.61050000  0.79750000  1
  Si  Si57  1  0.47030000  0.08080000  0.79750000  1
  Si  Si58  1  0.61050000  0.52970000  0.79750000  1
  Si  Si59  1  0.91920000  0.38950000  0.79750000  1
  Si  Si60  1  0.91920000  0.52970000  0.20250000  1
  Si  Si61  1  0.47030000  0.38950000  0.20250000  1
  Si  Si62  1  0.61050000  0.08080000  0.20250000  1
  Si  Si63  1  0.08080000  0.47030000  0.20250000  1
  Si  Si64  1  0.52970000  0.61050000  0.20250000  1
  Si  Si65  1  0.38950000  0.91920000  0.20250000  1
  Si  Si66  1  0.47030000  0.08080000  0.20250000  1
  Si  Si67  1  0.61050000  0.52970000  0.20250000  1
  Si  Si68  1  0.91920000  0.38950000  0.20250000  1
  Si  Si69  1  0.52970000  0.91920000  0.20250000  1
  Si  Si70  1  0.38950000  0.47030000  0.20250000  1
  Si  Si71  1  0.08080000  0.61050000  0.20250000  1
  Si  Si72  1  0.07970000  0.46890000  0.57250000  1
  Si  Si73  1  0.53110000  0.61080000  0.57250000  1
  Si  Si74  1  0.38920000  0.92030000  0.57250000  1
  Si  Si75  1  0.92030000  0.53110000  0.57250000  1
  Si  Si76  1  0.46890000  0.38920000  0.57250000  1
  Si  Si77  1  0.61080000  0.07970000  0.57250000  1
  Si  Si78  1  0.53110000  0.92030000  0.57250000  1
  Si  Si79  1  0.38920000  0.46890000  0.57250000  1
  Si  Si80  1  0.07970000  0.61080000  0.57250000  1
  Si  Si81  1  0.46890000  0.07970000  0.57250000  1
  Si  Si82  1  0.61080000  0.53110000  0.57250000  1
  Si  Si83  1  0.92030000  0.38920000  0.57250000  1
  Si  Si84  1  0.92030000  0.53110000  0.42750000  1
  Si  Si85  1  0.46890000  0.38920000  0.42750000  1
  Si  Si86  1  0.61080000  0.07970000  0.42750000  1
  Si  Si87  1  0.07970000  0.46890000  0.42750000  1
  Si  Si88  1  0.53110000  0.61080000  0.42750000  1
  Si  Si89  1  0.38920000  0.92030000  0.42750000  1
  Si  Si90  1  0.46890000  0.07970000  0.42750000  1
  Si  Si91  1  0.61080000  0.53110000  0.42750000  1
  Si  Si92  1  0.92030000  0.38920000  0.42750000  1
  Si  Si93  1  0.53110000  0.92030000  0.42750000  1
  Si  Si94  1  0.38920000  0.46890000  0.42750000  1
  Si  Si95  1  0.07970000  0.61080000  0.42750000  1
  Si  Si96  1  0.74350000  0.62530000  0.13160000  1
  Si  Si97  1  0.37470000  0.11820000  0.13160000  1
  Si  Si98  1  0.88180000  0.25650000  0.13160000  1
  Si  Si99  1  0.25650000  0.37470000  0.13160000  1
  Si  Si100  1  0.62530000  0.88180000  0.13160000  1
  Si  Si101  1  0.11820000  0.74350000  0.13160000  1
  Si  Si102  1  0.37470000  0.25650000  0.13160000  1
  Si  Si103  1  0.88180000  0.62530000  0.13160000  1
  Si  Si104  1  0.74350000  0.11820000  0.13160000  1
  Si  Si105  1  0.62530000  0.74350000  0.13160000  1
  Si  Si106  1  0.11820000  0.37470000  0.13160000  1
  Si  Si107  1  0.25650000  0.88180000  0.13160000  1
  Si  Si108  1  0.25650000  0.37470000  0.86840000  1
  Si  Si109  1  0.62530000  0.88180000  0.86840000  1
  Si  Si110  1  0.11820000  0.74350000  0.86840000  1
  Si  Si111  1  0.74350000  0.62530000  0.86840000  1
  Si  Si112  1  0.37470000  0.11820000  0.86840000  1
  Si  Si113  1  0.88180000  0.25650000  0.86840000  1
  Si  Si114  1  0.62530000  0.74350000  0.86840000  1
  Si  Si115  1  0.11820000  0.37470000  0.86840000  1
  Si  Si116  1  0.25650000  0.88180000  0.86840000  1
  Si  Si117  1  0.37470000  0.25650000  0.86840000  1
  Si  Si118  1  0.88180000  0.62530000  0.86840000  1
  Si  Si119  1  0.74350000  0.11820000  0.86840000  1
  Si  Si120  1  0.07910000  0.29650000  0.00000000  1
  Si  Si121  1  0.70350000  0.78260000  0.00000000  1
  Si  Si122  1  0.21740000  0.92090000  0.00000000  1
  Si  Si123  1  0.92090000  0.70350000  0.00000000  1
  Si  Si124  1  0.29650000  0.21740000  0.00000000  1
  Si  Si125  1  0.78260000  0.07910000  0.00000000  1
  Si  Si126  1  0.70350000  0.92090000  0.00000000  1
  Si  Si127  1  0.21740000  0.29650000  0.00000000  1
  Si  Si128  1  0.07910000  0.78260000  0.00000000  1
  Si  Si129  1  0.29650000  0.07910000  0.00000000  1
  Si  Si130  1  0.78260000  0.70350000  0.00000000  1
  Si  Si131  1  0.92090000  0.21740000  0.00000000  1
