# generated using pymatgen
data_O2
_symmetry_space_group_name_H-M   'P 1'
_cell_length_a   21.99500000
_cell_length_b   21.99500000
_cell_length_c   21.15900000
_cell_angle_alpha   90.00000000
_cell_angle_beta   90.00000000
_cell_angle_gamma   120.00000000
_symmetry_Int_Tables_number   1
_chemical_formula_structural   O2
_chemical_formula_sum   O276
_cell_volume   8864.89718221
_cell_formula_units_Z   138
loop_
 _symmetry_equiv_pos_site_id
 _symmetry_equiv_pos_as_xyz
  1  'x, y, z'
loop_
 _atom_site_type_symbol
 _atom_site_label
 _atom_site_symmetry_multiplicity
 _atom_site_fract_x
 _atom_site_fract_y
 _atom_site_fract_z
 _atom_site_occupancy
  O  O0  1  0.12900000  0.25790000  0.74040000  1
  O  O1  1  0.74210000  0.87110000  0.74040000  1
  O  O2  1  0.12890000  0.87100000  0.74040000  1
  O  O3  1  0.87100000  0.74210000  0.74040000  1
  O  O4  1  0.25790000  0.12890000  0.74040000  1
  O  O5  1  0.87110000  0.12900000  0.74040000  1
  O  O6  1  0.87100000  0.74210000  0.25960000  1
  O  O7  1  0.25790000  0.12890000  0.25960000  1
  O  O8  1  0.87110000  0.12900000  0.25960000  1
  O  O9  1  0.12900000  0.25790000  0.25960000  1
  O  O10  1  0.74210000  0.87110000  0.25960000  1
  O  O11  1  0.12890000  0.87100000  0.25960000  1
  O  O12  1  0.10670000  0.35770000  0.69880000  1
  O  O13  1  0.64230000  0.74900000  0.69880000  1
  O  O14  1  0.25100000  0.89330000  0.69880000  1
  O  O15  1  0.89330000  0.64230000  0.69880000  1
  O  O16  1  0.35770000  0.25100000  0.69880000  1
  O  O17  1  0.74900000  0.10670000  0.69880000  1
  O  O18  1  0.64230000  0.89330000  0.69880000  1
  O  O19  1  0.25100000  0.35770000  0.69880000  1
  O  O20  1  0.10670000  0.74900000  0.69880000  1
  O  O21  1  0.35770000  0.10670000  0.69880000  1
  O  O22  1  0.74900000  0.64230000  0.69880000  1
  O  O23  1  0.89330000  0.25100000  0.69880000  1
  O  O24  1  0.89330000  0.64230000  0.30120000  1
  O  O25  1  0.35770000  0.25100000  0.30120000  1
  O  O26  1  0.74900000  0.10670000  0.30120000  1
  O  O27  1  0.10670000  0.35770000  0.30120000  1
  O  O28  1  0.64230000  0.74900000  0.30120000  1
  O  O29  1  0.25100000  0.89330000  0.30120000  1
  O  O30  1  0.35770000  0.10670000  0.30120000  1
  O  O31  1  0.74900000  0.64230000  0.30120000  1
  O  O32  1  0.89330000  0.25100000  0.30120000  1
  O  O33  1  0.64230000  0.89330000  0.30120000  1
  O  O34  1  0.25100000  0.35770000  0.30120000  1
  O  O35  1  0.10670000  0.74900000  0.30120000  1
  O  O36  1  0.00000000  0.23240000  0.72360000  1
  O  O37  1  0.76760000  0.76760000  0.72360000  1
  O  O38  1  0.23240000  0.00000000  0.72360000  1
  O  O39  1  0.00000000  0.76760000  0.72360000  1
  O  O40  1  0.23240000  0.23240000  0.72360000  1
  O  O41  1  0.76760000  0.00000000  0.72360000  1
  O  O42  1  0.00000000  0.76760000  0.27640000  1
  O  O43  1  0.23240000  0.23240000  0.27640000  1
  O  O44  1  0.76760000  0.00000000  0.27640000  1
  O  O45  1  0.00000000  0.23240000  0.27640000  1
  O  O46  1  0.76760000  0.76760000  0.27640000  1
  O  O47  1  0.23240000  0.00000000  0.27640000  1
  O  O48  1  0.07640000  0.31420000  0.81660000  1
  O  O49  1  0.68580000  0.76220000  0.81660000  1
  O  O50  1  0.23780000  0.92360000  0.81660000  1
  O  O51  1  0.92360000  0.68580000  0.81660000  1
  O  O52  1  0.31420000  0.23780000  0.81660000  1
  O  O53  1  0.76220000  0.07640000  0.81660000  1
  O  O54  1  0.68580000  0.92360000  0.81660000  1
  O  O55  1  0.23780000  0.31420000  0.81660000  1
  O  O56  1  0.07640000  0.76220000  0.81660000  1
  O  O57  1  0.31420000  0.07640000  0.81660000  1
  O  O58  1  0.76220000  0.68580000  0.81660000  1
  O  O59  1  0.92360000  0.23780000  0.81660000  1
  O  O60  1  0.92360000  0.68580000  0.18340000  1
  O  O61  1  0.31420000  0.23780000  0.18340000  1
  O  O62  1  0.76220000  0.07640000  0.18340000  1
  O  O63  1  0.07640000  0.31420000  0.18340000  1
  O  O64  1  0.68580000  0.76220000  0.18340000  1
  O  O65  1  0.23780000  0.92360000  0.18340000  1
  O  O66  1  0.31420000  0.07640000  0.18340000  1
  O  O67  1  0.76220000  0.68580000  0.18340000  1
  O  O68  1  0.92360000  0.23780000  0.18340000  1
  O  O69  1  0.68580000  0.92360000  0.18340000  1
  O  O70  1  0.23780000  0.31420000  0.18340000  1
  O  O71  1  0.07640000  0.76220000  0.18340000  1
  O  O72  1  0.64900000  0.51900000  0.26280000  1
  O  O73  1  0.48100000  0.13000000  0.26280000  1
  O  O74  1  0.87000000  0.35100000  0.26280000  1
  O  O75  1  0.35100000  0.48100000  0.26280000  1
  O  O76  1  0.51900000  0.87000000  0.26280000  1
  O  O77  1  0.13000000  0.64900000  0.26280000  1
  O  O78  1  0.48100000  0.35100000  0.26280000  1
  O  O79  1  0.87000000  0.51900000  0.26280000  1
  O  O80  1  0.64900000  0.13000000  0.26280000  1
  O  O81  1  0.51900000  0.64900000  0.26280000  1
  O  O82  1  0.13000000  0.48100000  0.26280000  1
  O  O83  1  0.35100000  0.87000000  0.26280000  1
  O  O84  1  0.35100000  0.48100000  0.73720000  1
  O  O85  1  0.51900000  0.87000000  0.73720000  1
  O  O86  1  0.13000000  0.64900000  0.73720000  1
  O  O87  1  0.64900000  0.51900000  0.73720000  1
  O  O88  1  0.48100000  0.13000000  0.73720000  1
  O  O89  1  0.87000000  0.35100000  0.73720000  1
  O  O90  1  0.51900000  0.64900000  0.73720000  1
  O  O91  1  0.13000000  0.48100000  0.73720000  1
  O  O92  1  0.35100000  0.87000000  0.73720000  1
  O  O93  1  0.48100000  0.35100000  0.73720000  1
  O  O94  1  0.87000000  0.51900000  0.73720000  1
  O  O95  1  0.64900000  0.13000000  0.73720000  1
  O  O96  1  0.67620000  0.54370000  0.38410000  1
  O  O97  1  0.45630000  0.13250000  0.38410000  1
  O  O98  1  0.86750000  0.32380000  0.38410000  1
  O  O99  1  0.32380000  0.45630000  0.38410000  1
  O  O100  1  0.54370000  0.86750000  0.38410000  1
  O  O101  1  0.13250000  0.67620000  0.38410000  1
  O  O102  1  0.45630000  0.32380000  0.38410000  1
  O  O103  1  0.86750000  0.54370000  0.38410000  1
  O  O104  1  0.67620000  0.13250000  0.38410000  1
  O  O105  1  0.54370000  0.67620000  0.38410000  1
  O  O106  1  0.13250000  0.45630000  0.38410000  1
  O  O107  1  0.32380000  0.86750000  0.38410000  1
  O  O108  1  0.32380000  0.45630000  0.61590000  1
  O  O109  1  0.54370000  0.86750000  0.61590000  1
  O  O110  1  0.13250000  0.67620000  0.61590000  1
  O  O111  1  0.67620000  0.54370000  0.61590000  1
  O  O112  1  0.45630000  0.13250000  0.61590000  1
  O  O113  1  0.86750000  0.32380000  0.61590000  1
  O  O114  1  0.54370000  0.67620000  0.61590000  1
  O  O115  1  0.13250000  0.45630000  0.61590000  1
  O  O116  1  0.32380000  0.86750000  0.61590000  1
  O  O117  1  0.45630000  0.32380000  0.61590000  1
  O  O118  1  0.86750000  0.54370000  0.61590000  1
  O  O119  1  0.67620000  0.13250000  0.61590000  1
  O  O120  1  0.76640000  0.53280000  0.30970000  1
  O  O121  1  0.46720000  0.23360000  0.30970000  1
  O  O122  1  0.76640000  0.23360000  0.30970000  1
  O  O123  1  0.23360000  0.46720000  0.30970000  1
  O  O124  1  0.53280000  0.76640000  0.30970000  1
  O  O125  1  0.23360000  0.76640000  0.30970000  1
  O  O126  1  0.23360000  0.46720000  0.69030000  1
  O  O127  1  0.53280000  0.76640000  0.69030000  1
  O  O128  1  0.23360000  0.76640000  0.69030000  1
  O  O129  1  0.76640000  0.53280000  0.69030000  1
  O  O130  1  0.46720000  0.23360000  0.69030000  1
  O  O131  1  0.76640000  0.23360000  0.69030000  1
  O  O132  1  0.10420000  0.43880000  0.85520000  1
  O  O133  1  0.56120000  0.66540000  0.85520000  1
  O  O134  1  0.33460000  0.89580000  0.85520000  1
  O  O135  1  0.89580000  0.56120000  0.85520000  1
  O  O136  1  0.43880000  0.33460000  0.85520000  1
  O  O137  1  0.66540000  0.10420000  0.85520000  1
  O  O138  1  0.56120000  0.89580000  0.85520000  1
  O  O139  1  0.33460000  0.43880000  0.85520000  1
  O  O140  1  0.10420000  0.66540000  0.85520000  1
  O  O141  1  0.43880000  0.10420000  0.85520000  1
  O  O142  1  0.66540000  0.56120000  0.85520000  1
  O  O143  1  0.89580000  0.33460000  0.85520000  1
  O  O144  1  0.89580000  0.56120000  0.14480000  1
  O  O145  1  0.43880000  0.33460000  0.14480000  1
  O  O146  1  0.66540000  0.10420000  0.14480000  1
  O  O147  1  0.10420000  0.43880000  0.14480000  1
  O  O148  1  0.56120000  0.66540000  0.14480000  1
  O  O149  1  0.33460000  0.89580000  0.14480000  1
  O  O150  1  0.43880000  0.10420000  0.14480000  1
  O  O151  1  0.66540000  0.56120000  0.14480000  1
  O  O152  1  0.89580000  0.33460000  0.14480000  1
  O  O153  1  0.56120000  0.89580000  0.14480000  1
  O  O154  1  0.33460000  0.43880000  0.14480000  1
  O  O155  1  0.10420000  0.66540000  0.14480000  1
  O  O156  1  0.00000000  0.41680000  0.77990000  1
  O  O157  1  0.58320000  0.58320000  0.77990000  1
  O  O158  1  0.41680000  0.00000000  0.77990000  1
  O  O159  1  0.00000000  0.58320000  0.77990000  1
  O  O160  1  0.41680000  0.41680000  0.77990000  1
  O  O161  1  0.58320000  0.00000000  0.77990000  1
  O  O162  1  0.00000000  0.58320000  0.22010000  1
  O  O163  1  0.41680000  0.41680000  0.22010000  1
  O  O164  1  0.58320000  0.00000000  0.22010000  1
  O  O165  1  0.00000000  0.41680000  0.22010000  1
  O  O166  1  0.58320000  0.58320000  0.22010000  1
  O  O167  1  0.41680000  0.00000000  0.22010000  1
  O  O168  1  0.08970000  0.54490000  0.81780000  1
  O  O169  1  0.45510000  0.54480000  0.81780000  1
  O  O170  1  0.45520000  0.91030000  0.81780000  1
  O  O171  1  0.91030000  0.45510000  0.81780000  1
  O  O172  1  0.54490000  0.45520000  0.81780000  1
  O  O173  1  0.54480000  0.08970000  0.81780000  1
  O  O174  1  0.45510000  0.91030000  0.81780000  1
  O  O175  1  0.45520000  0.54490000  0.81780000  1
  O  O176  1  0.08970000  0.54480000  0.81780000  1
  O  O177  1  0.54490000  0.08970000  0.81780000  1
  O  O178  1  0.54480000  0.45510000  0.81780000  1
  O  O179  1  0.91030000  0.45520000  0.81780000  1
  O  O180  1  0.91030000  0.45510000  0.18220000  1
  O  O181  1  0.54490000  0.45520000  0.18220000  1
  O  O182  1  0.54480000  0.08970000  0.18220000  1
  O  O183  1  0.08970000  0.54490000  0.18220000  1
  O  O184  1  0.45510000  0.54480000  0.18220000  1
  O  O185  1  0.45520000  0.91030000  0.18220000  1
  O  O186  1  0.54490000  0.08970000  0.18220000  1
  O  O187  1  0.54480000  0.45510000  0.18220000  1
  O  O188  1  0.91030000  0.45520000  0.18220000  1
  O  O189  1  0.45510000  0.91030000  0.18220000  1
  O  O190  1  0.45520000  0.54490000  0.18220000  1
  O  O191  1  0.08970000  0.54480000  0.18220000  1
  O  O192  1  0.08750000  0.45160000  0.50000000  1
  O  O193  1  0.54840000  0.63590000  0.50000000  1
  O  O194  1  0.36410000  0.91250000  0.50000000  1
  O  O195  1  0.91250000  0.54840000  0.50000000  1
  O  O196  1  0.45160000  0.36410000  0.50000000  1
  O  O197  1  0.63590000  0.08750000  0.50000000  1
  O  O198  1  0.54840000  0.91250000  0.50000000  1
  O  O199  1  0.36410000  0.45160000  0.50000000  1
  O  O200  1  0.08750000  0.63590000  0.50000000  1
  O  O201  1  0.45160000  0.08750000  0.50000000  1
  O  O202  1  0.63590000  0.54840000  0.50000000  1
  O  O203  1  0.91250000  0.36410000  0.50000000  1
  O  O204  1  0.09920000  0.54960000  0.57830000  1
  O  O205  1  0.45040000  0.54960000  0.57830000  1
  O  O206  1  0.45040000  0.90080000  0.57830000  1
  O  O207  1  0.90080000  0.45040000  0.57830000  1
  O  O208  1  0.54960000  0.45040000  0.57830000  1
  O  O209  1  0.54960000  0.09920000  0.57830000  1
  O  O210  1  0.90080000  0.45040000  0.42170000  1
  O  O211  1  0.54960000  0.45040000  0.42170000  1
  O  O212  1  0.54960000  0.09920000  0.42170000  1
  O  O213  1  0.09920000  0.54960000  0.42170000  1
  O  O214  1  0.45040000  0.54960000  0.42170000  1
  O  O215  1  0.45040000  0.90080000  0.42170000  1
  O  O216  1  0.00000000  0.41850000  0.59540000  1
  O  O217  1  0.58150000  0.58150000  0.59540000  1
  O  O218  1  0.41850000  0.00000000  0.59540000  1
  O  O219  1  0.00000000  0.58150000  0.59540000  1
  O  O220  1  0.41850000  0.41850000  0.59540000  1
  O  O221  1  0.58150000  0.00000000  0.59540000  1
  O  O222  1  0.00000000  0.58150000  0.40460000  1
  O  O223  1  0.41850000  0.41850000  0.40460000  1
  O  O224  1  0.58150000  0.00000000  0.40460000  1
  O  O225  1  0.00000000  0.41850000  0.40460000  1
  O  O226  1  0.58150000  0.58150000  0.40460000  1
  O  O227  1  0.41850000  0.00000000  0.40460000  1
  O  O228  1  0.79900000  0.59810000  0.13690000  1
  O  O229  1  0.40190000  0.20090000  0.13690000  1
  O  O230  1  0.79910000  0.20100000  0.13690000  1
  O  O231  1  0.20100000  0.40190000  0.13690000  1
  O  O232  1  0.59810000  0.79910000  0.13690000  1
  O  O233  1  0.20090000  0.79900000  0.13690000  1
  O  O234  1  0.20100000  0.40190000  0.86310000  1
  O  O235  1  0.59810000  0.79910000  0.86310000  1
  O  O236  1  0.20090000  0.79900000  0.86310000  1
  O  O237  1  0.79900000  0.59810000  0.86310000  1
  O  O238  1  0.40190000  0.20090000  0.86310000  1
  O  O239  1  0.79910000  0.20100000  0.86310000  1
  O  O240  1  0.74730000  0.65650000  0.06200000  1
  O  O241  1  0.34350000  0.09080000  0.06200000  1
  O  O242  1  0.90920000  0.25270000  0.06200000  1
  O  O243  1  0.25270000  0.34350000  0.06200000  1
  O  O244  1  0.65650000  0.90920000  0.06200000  1
  O  O245  1  0.09080000  0.74730000  0.06200000  1
  O  O246  1  0.34350000  0.25270000  0.06200000  1
  O  O247  1  0.90920000  0.65650000  0.06200000  1
  O  O248  1  0.74730000  0.09080000  0.06200000  1
  O  O249  1  0.65650000  0.74730000  0.06200000  1
  O  O250  1  0.09080000  0.34350000  0.06200000  1
  O  O251  1  0.25270000  0.90920000  0.06200000  1
  O  O252  1  0.25270000  0.34350000  0.93800000  1
  O  O253  1  0.65650000  0.90920000  0.93800000  1
  O  O254  1  0.09080000  0.74730000  0.93800000  1
  O  O255  1  0.74730000  0.65650000  0.93800000  1
  O  O256  1  0.34350000  0.09080000  0.93800000  1
  O  O257  1  0.90920000  0.25270000  0.93800000  1
  O  O258  1  0.65650000  0.74730000  0.93800000  1
  O  O259  1  0.09080000  0.34350000  0.93800000  1
  O  O260  1  0.25270000  0.90920000  0.93800000  1
  O  O261  1  0.34350000  0.25270000  0.93800000  1
  O  O262  1  0.90920000  0.65650000  0.93800000  1
  O  O263  1  0.74730000  0.09080000  0.93800000  1
  O  O264  1  0.00000000  0.23100000  0.00000000  1
  O  O265  1  0.76900000  0.76900000  0.00000000  1
  O  O266  1  0.23100000  0.00000000  0.00000000  1
  O  O267  1  0.00000000  0.76900000  0.00000000  1
  O  O268  1  0.23100000  0.23100000  0.00000000  1
  O  O269  1  0.76900000  0.00000000  0.00000000  1
  O  O270  1  0.13430000  0.26860000  0.00000000  1
  O  O271  1  0.73140000  0.86570000  0.00000000  1
  O  O272  1  0.13430000  0.86570000  0.00000000  1
  O  O273  1  0.86570000  0.73140000  0.00000000  1
  O  O274  1  0.26860000  0.13430000  0.00000000  1
  O  O275  1  0.86570000  0.13430000  0.00000000  1
