# generated using pymatgen
data_SiO4
_symmetry_space_group_name_H-M   'P 1'
_cell_length_a   21.99500000
_cell_length_b   21.99500000
_cell_length_c   21.15900000
_cell_angle_alpha   90.00000000
_cell_angle_beta   90.00000000
_cell_angle_gamma   120.00000000
_symmetry_Int_Tables_number   1
_chemical_formula_structural   SiO4
_chemical_formula_sum   'Si1 O4'
_cell_volume   8864.89718221
_cell_formula_units_Z   1
loop_
 _symmetry_equiv_pos_site_id
 _symmetry_equiv_pos_as_xyz
  1  'x, y, z'
loop_
 _atom_site_type_symbol
 _atom_site_label
 _atom_site_symmetry_multiplicity
 _atom_site_fract_x
 _atom_site_fract_y
 _atom_site_fract_z
 _atom_site_occupancy
  Si  Si0  1  0.53110000  0.61080000  0.42750000  1
  O  O1  1  0.54370000  0.67620000  0.38410000  1
  O  O2  1  0.54840000  0.63590000  0.50000000  1
  O  O3  1  0.45040000  0.54960000  0.42170000  1
  O  O4  1  0.58150000  0.58150000  0.40460000  1
