# generated using pymatgen
data_SiO4
_symmetry_space_group_name_H-M   'P 1'
_cell_length_a   21.99500000
_cell_length_b   21.99500000
_cell_length_c   21.15900000
_cell_angle_alpha   90.00000000
_cell_angle_beta   90.00000000
_cell_angle_gamma   120.00000000
_symmetry_Int_Tables_number   1
_chemical_formula_structural   SiO4
_chemical_formula_sum   'Si1 O4'
_cell_volume   8864.89718221
_cell_formula_units_Z   1
loop_
 _symmetry_equiv_pos_site_id
 _symmetry_equiv_pos_as_xyz
  1  'x, y, z'
loop_
 _atom_site_type_symbol
 _atom_site_label
 _atom_site_symmetry_multiplicity
 _atom_site_fract_x
 _atom_site_fract_y
 _atom_site_fract_z
 _atom_site_occupancy
  Si  Si0  1  0.92200000  0.21270000  0.25510000  1
  O  O1  1  0.87110000  0.12900000  0.25960000  1
  O  O2  1  0.89330000  0.25100000  0.30120000  1
  O  O3  1  1.00000000  0.23240000  0.27640000  1
  O  O4  1  0.92360000  0.23780000  0.18340000  1
