# generated using pymatgen
data_SiO4
_symmetry_space_group_name_H-M   'P 1'
_cell_length_a   21.99500000
_cell_length_b   21.99500000
_cell_length_c   21.15900000
_cell_angle_alpha   90.00000000
_cell_angle_beta   90.00000000
_cell_angle_gamma   120.00000000
_symmetry_Int_Tables_number   1
_chemical_formula_structural   SiO4
_chemical_formula_sum   'Si1 O4'
_cell_volume   8864.89718221
_cell_formula_units_Z   1
loop_
 _symmetry_equiv_pos_site_id
 _symmetry_equiv_pos_as_xyz
  1  'x, y, z'
loop_
 _atom_site_type_symbol
 _atom_site_label
 _atom_site_symmetry_multiplicity
 _atom_site_fract_x
 _atom_site_fract_y
 _atom_site_fract_z
 _atom_site_occupancy
  Si  Si0  1  0.38920000  0.92030000  0.57250000  1
  O  O1  1  0.32380000  0.86750000  0.61590000  1
  O  O2  1  0.36410000  0.91250000  0.50000000  1
  O  O3  1  0.45040000  0.90080000  0.57830000  1
  O  O4  1  0.41850000  1.00000000  0.59540000  1
