# generated using pymatgen
data_SiO4
_symmetry_space_group_name_H-M   'P 1'
_cell_length_a   44.74438000
_cell_length_b   44.74438000
_cell_length_c   44.74438000
_cell_angle_alpha   90.00000000
_cell_angle_beta   90.00000000
_cell_angle_gamma   90.00000000
_symmetry_Int_Tables_number   1
_chemical_formula_structural   SiO4
_chemical_formula_sum   'Si1 O4'
_cell_volume   89580.91291128
_cell_formula_units_Z   1
loop_
 _symmetry_equiv_pos_site_id
 _symmetry_equiv_pos_as_xyz
  1  'x, y, z'
loop_
 _atom_site_type_symbol
 _atom_site_label
 _atom_site_symmetry_multiplicity
 _atom_site_fract_x
 _atom_site_fract_y
 _atom_site_fract_z
 _atom_site_occupancy
  Si  Si0  1  0.96535000  0.08359000  0.42269000  1
  O  O1  1  0.96052000  0.09332000  0.38840000  1
  O  O2  1  0.95540000  0.11048000  0.44443000  1
  O  O3  1  1.00000000  0.07580000  0.42836000  1
  O  O4  1  0.94551000  0.05449000  0.42997000  1
