# generated using pymatgen
data_Si
_symmetry_space_group_name_H-M   'P 1'
_cell_length_a   9.10100000
_cell_length_b   15.03500000
_cell_length_c   19.24100000
_cell_angle_alpha   90.00000000
_cell_angle_beta   90.00000000
_cell_angle_gamma   90.00000000
_symmetry_Int_Tables_number   1
_chemical_formula_structural   Si
_chemical_formula_sum   Si48
_cell_volume   2632.81404694
_cell_formula_units_Z   48
loop_
 _symmetry_equiv_pos_site_id
 _symmetry_equiv_pos_as_xyz
  1  'x, y, z'
loop_
 _atom_site_type_symbol
 _atom_site_label
 _atom_site_symmetry_multiplicity
 _atom_site_fract_x
 _atom_site_fract_y
 _atom_site_fract_z
 _atom_site_occupancy
  Si  Si0  1  0.17600000  0.85670000  0.32150000  1
  Si  Si1  1  0.67600000  0.35670000  0.32150000  1
  Si  Si2  1  0.82400000  0.85670000  0.32150000  1
  Si  Si3  1  0.32400000  0.35670000  0.32150000  1
  Si  Si4  1  0.17600000  0.64330000  0.82150000  1
  Si  Si5  1  0.67600000  0.14330000  0.82150000  1
  Si  Si6  1  0.82400000  0.64330000  0.82150000  1
  Si  Si7  1  0.32400000  0.14330000  0.82150000  1
  Si  Si8  1  0.82400000  0.14330000  0.67850000  1
  Si  Si9  1  0.32400000  0.64330000  0.67850000  1
  Si  Si10  1  0.17600000  0.14330000  0.67850000  1
  Si  Si11  1  0.67600000  0.64330000  0.67850000  1
  Si  Si12  1  0.82400000  0.35670000  0.17850000  1
  Si  Si13  1  0.32400000  0.85670000  0.17850000  1
  Si  Si14  1  0.17600000  0.35670000  0.17850000  1
  Si  Si15  1  0.67600000  0.85670000  0.17850000  1
  Si  Si16  1  0.17060000  0.99730000  0.08270000  1
  Si  Si17  1  0.67060000  0.49730000  0.08270000  1
  Si  Si18  1  0.82940000  0.99730000  0.08270000  1
  Si  Si19  1  0.32940000  0.49730000  0.08270000  1
  Si  Si20  1  0.17060000  0.50270000  0.58270000  1
  Si  Si21  1  0.67060000  0.00270000  0.58270000  1
  Si  Si22  1  0.82940000  0.50270000  0.58270000  1
  Si  Si23  1  0.32940000  0.00270000  0.58270000  1
  Si  Si24  1  0.82940000  0.00270000  0.91730000  1
  Si  Si25  1  0.32940000  0.50270000  0.91730000  1
  Si  Si26  1  0.17060000  0.00270000  0.91730000  1
  Si  Si27  1  0.67060000  0.50270000  0.91730000  1
  Si  Si28  1  0.82940000  0.49730000  0.41730000  1
  Si  Si29  1  0.32940000  0.99730000  0.41730000  1
  Si  Si30  1  0.17060000  0.49730000  0.41730000  1
  Si  Si31  1  0.67060000  0.99730000  0.41730000  1
  Si  Si32  1  0.32480000  0.15580000  0.32080000  1
  Si  Si33  1  0.82480000  0.65580000  0.32080000  1
  Si  Si34  1  0.67520000  0.15580000  0.32080000  1
  Si  Si35  1  0.17520000  0.65580000  0.32080000  1
  Si  Si36  1  0.32480000  0.34420000  0.82080000  1
  Si  Si37  1  0.82480000  0.84420000  0.82080000  1
  Si  Si38  1  0.67520000  0.34420000  0.82080000  1
  Si  Si39  1  0.17520000  0.84420000  0.82080000  1
  Si  Si40  1  0.67520000  0.84420000  0.67920000  1
  Si  Si41  1  0.17520000  0.34420000  0.67920000  1
  Si  Si42  1  0.32480000  0.84420000  0.67920000  1
  Si  Si43  1  0.82480000  0.34420000  0.67920000  1
  Si  Si44  1  0.67520000  0.65580000  0.17920000  1
  Si  Si45  1  0.17520000  0.15580000  0.17920000  1
  Si  Si46  1  0.32480000  0.65580000  0.17920000  1
  Si  Si47  1  0.82480000  0.15580000  0.17920000  1
