# generated using pymatgen
data_SiO4
_symmetry_space_group_name_H-M   'P 1'
_cell_length_a   9.10100000
_cell_length_b   15.03500000
_cell_length_c   19.24100000
_cell_angle_alpha   90.00000000
_cell_angle_beta   90.00000000
_cell_angle_gamma   90.00000000
_symmetry_Int_Tables_number   1
_chemical_formula_structural   SiO4
_chemical_formula_sum   'Si1 O4'
_cell_volume   2632.81404694
_cell_formula_units_Z   1
loop_
 _symmetry_equiv_pos_site_id
 _symmetry_equiv_pos_as_xyz
  1  'x, y, z'
loop_
 _atom_site_type_symbol
 _atom_site_label
 _atom_site_symmetry_multiplicity
 _atom_site_fract_x
 _atom_site_fract_y
 _atom_site_fract_z
 _atom_site_occupancy
  Si  Si0  1  0.17520000  0.34420000  0.67920000  1
  O  O1  1  0.22740000  0.24400000  0.66320000  1
  O  O2  1  0.21920000  0.40870000  0.61580000  1
  O  O3  1  0.25000000  0.37890000  0.75000000  1
  O  O4  1  0.00000000  0.34540000  0.68920000  1
