# generated using pymatgen
data_SiO4
_symmetry_space_group_name_H-M   'P 1'
_cell_length_a   21.23300000
_cell_length_b   13.30200000
_cell_length_c   12.67600000
_cell_angle_alpha   90.00000000
_cell_angle_beta   90.00000000
_cell_angle_gamma   90.00000000
_symmetry_Int_Tables_number   1
_chemical_formula_structural   SiO4
_chemical_formula_sum   'Si1 O4'
_cell_volume   3580.22675542
_cell_formula_units_Z   1
loop_
 _symmetry_equiv_pos_site_id
 _symmetry_equiv_pos_as_xyz
  1  'x, y, z'
loop_
 _atom_site_type_symbol
 _atom_site_label
 _atom_site_symmetry_multiplicity
 _atom_site_fract_x
 _atom_site_fract_y
 _atom_site_fract_z
 _atom_site_occupancy
  Si  Si0  1  0.27650000  0.88470000  0.12130000  1
  O  O1  1  0.21000000  0.87370000  0.18120000  1
  O  O2  1  0.32780000  0.81430000  0.17880000  1
  O  O3  1  0.29940000  1.00000000  0.12620000  1
  O  O4  1  0.26890000  0.85090000  0.00000000  1
