# generated using pymatgen
data_Si
_symmetry_space_group_name_H-M   'P 1'
_cell_length_a   21.23300000
_cell_length_b   13.30200000
_cell_length_c   12.67600000
_cell_angle_alpha   90.00000000
_cell_angle_beta   90.00000000
_cell_angle_gamma   90.00000000
_symmetry_Int_Tables_number   1
_chemical_formula_structural   Si
_chemical_formula_sum   Si56
_cell_volume   3580.22675542
_cell_formula_units_Z   56
loop_
 _symmetry_equiv_pos_site_id
 _symmetry_equiv_pos_as_xyz
  1  'x, y, z'
loop_
 _atom_site_type_symbol
 _atom_site_label
 _atom_site_symmetry_multiplicity
 _atom_site_fract_x
 _atom_site_fract_y
 _atom_site_fract_z
 _atom_site_occupancy
  Si  Si0  1  0.07200000  0.11560000  0.37770000  1
  Si  Si1  1  0.57200000  0.61560000  0.37770000  1
  Si  Si2  1  0.92800000  0.11560000  0.37770000  1
  Si  Si3  1  0.42800000  0.61560000  0.37770000  1
  Si  Si4  1  0.07200000  0.88440000  0.37770000  1
  Si  Si5  1  0.57200000  0.38440000  0.37770000  1
  Si  Si6  1  0.92800000  0.88440000  0.37770000  1
  Si  Si7  1  0.42800000  0.38440000  0.37770000  1
  Si  Si8  1  0.92800000  0.88440000  0.62230000  1
  Si  Si9  1  0.42800000  0.38440000  0.62230000  1
  Si  Si10  1  0.07200000  0.88440000  0.62230000  1
  Si  Si11  1  0.57200000  0.38440000  0.62230000  1
  Si  Si12  1  0.92800000  0.11560000  0.62230000  1
  Si  Si13  1  0.42800000  0.61560000  0.62230000  1
  Si  Si14  1  0.07200000  0.11560000  0.62230000  1
  Si  Si15  1  0.57200000  0.61560000  0.62230000  1
  Si  Si16  1  0.15000000  0.19940000  0.19330000  1
  Si  Si17  1  0.65000000  0.69940000  0.19330000  1
  Si  Si18  1  0.85000000  0.19940000  0.19330000  1
  Si  Si19  1  0.35000000  0.69940000  0.19330000  1
  Si  Si20  1  0.15000000  0.80060000  0.19330000  1
  Si  Si21  1  0.65000000  0.30060000  0.19330000  1
  Si  Si22  1  0.85000000  0.80060000  0.19330000  1
  Si  Si23  1  0.35000000  0.30060000  0.19330000  1
  Si  Si24  1  0.85000000  0.80060000  0.80670000  1
  Si  Si25  1  0.35000000  0.30060000  0.80670000  1
  Si  Si26  1  0.15000000  0.80060000  0.80670000  1
  Si  Si27  1  0.65000000  0.30060000  0.80670000  1
  Si  Si28  1  0.85000000  0.19940000  0.80670000  1
  Si  Si29  1  0.35000000  0.69940000  0.80670000  1
  Si  Si30  1  0.15000000  0.19940000  0.80670000  1
  Si  Si31  1  0.65000000  0.69940000  0.80670000  1
  Si  Si32  1  0.27650000  0.11530000  0.12130000  1
  Si  Si33  1  0.77650000  0.61530000  0.12130000  1
  Si  Si34  1  0.72350000  0.11530000  0.12130000  1
  Si  Si35  1  0.22350000  0.61530000  0.12130000  1
  Si  Si36  1  0.27650000  0.88470000  0.12130000  1
  Si  Si37  1  0.77650000  0.38470000  0.12130000  1
  Si  Si38  1  0.72350000  0.88470000  0.12130000  1
  Si  Si39  1  0.22350000  0.38470000  0.12130000  1
  Si  Si40  1  0.72350000  0.88470000  0.87870000  1
  Si  Si41  1  0.22350000  0.38470000  0.87870000  1
  Si  Si42  1  0.27650000  0.88470000  0.87870000  1
  Si  Si43  1  0.77650000  0.38470000  0.87870000  1
  Si  Si44  1  0.72350000  0.11530000  0.87870000  1
  Si  Si45  1  0.22350000  0.61530000  0.87870000  1
  Si  Si46  1  0.27650000  0.11530000  0.87870000  1
  Si  Si47  1  0.77650000  0.61530000  0.87870000  1
  Si  Si48  1  0.07560000  0.11350000  0.00000000  1
  Si  Si49  1  0.57560000  0.61350000  0.00000000  1
  Si  Si50  1  0.92440000  0.11350000  0.00000000  1
  Si  Si51  1  0.42440000  0.61350000  0.00000000  1
  Si  Si52  1  0.07560000  0.88650000  0.00000000  1
  Si  Si53  1  0.57560000  0.38650000  0.00000000  1
  Si  Si54  1  0.92440000  0.88650000  0.00000000  1
  Si  Si55  1  0.42440000  0.38650000  0.00000000  1
