# generated using pymatgen
data_O2
_symmetry_space_group_name_H-M   'P 1'
_cell_length_a   21.23300000
_cell_length_b   13.30200000
_cell_length_c   12.67600000
_cell_angle_alpha   90.00000000
_cell_angle_beta   90.00000000
_cell_angle_gamma   90.00000000
_symmetry_Int_Tables_number   1
_chemical_formula_structural   O2
_chemical_formula_sum   O112
_cell_volume   3580.22675542
_cell_formula_units_Z   56
loop_
 _symmetry_equiv_pos_site_id
 _symmetry_equiv_pos_as_xyz
  1  'x, y, z'
loop_
 _atom_site_type_symbol
 _atom_site_label
 _atom_site_symmetry_multiplicity
 _atom_site_fract_x
 _atom_site_fract_y
 _atom_site_fract_z
 _atom_site_occupancy
  O  O0  1  0.09900000  0.17230000  0.10370000  1
  O  O1  1  0.59900000  0.67230000  0.10370000  1
  O  O2  1  0.90100000  0.17230000  0.10370000  1
  O  O3  1  0.40100000  0.67230000  0.10370000  1
  O  O4  1  0.09900000  0.82770000  0.10370000  1
  O  O5  1  0.59900000  0.32770000  0.10370000  1
  O  O6  1  0.90100000  0.82770000  0.10370000  1
  O  O7  1  0.40100000  0.32770000  0.10370000  1
  O  O8  1  0.90100000  0.82770000  0.89630000  1
  O  O9  1  0.40100000  0.32770000  0.89630000  1
  O  O10  1  0.09900000  0.82770000  0.89630000  1
  O  O11  1  0.59900000  0.32770000  0.89630000  1
  O  O12  1  0.90100000  0.17230000  0.89630000  1
  O  O13  1  0.40100000  0.67230000  0.89630000  1
  O  O14  1  0.09900000  0.17230000  0.89630000  1
  O  O15  1  0.59900000  0.67230000  0.89630000  1
  O  O16  1  0.00000000  0.11000000  0.00000000  1
  O  O17  1  0.50000000  0.61000000  0.00000000  1
  O  O18  1  0.00000000  0.89000000  0.00000000  1
  O  O19  1  0.50000000  0.39000000  0.00000000  1
  O  O20  1  0.10220000  0.00000000  0.00000000  1
  O  O21  1  0.60220000  0.50000000  0.00000000  1
  O  O22  1  0.89780000  0.00000000  0.00000000  1
  O  O23  1  0.39780000  0.50000000  0.00000000  1
  O  O24  1  0.09130000  0.12680000  0.50000000  1
  O  O25  1  0.59130000  0.62680000  0.50000000  1
  O  O26  1  0.90870000  0.12680000  0.50000000  1
  O  O27  1  0.40870000  0.62680000  0.50000000  1
  O  O28  1  0.09130000  0.87320000  0.50000000  1
  O  O29  1  0.59130000  0.37320000  0.50000000  1
  O  O30  1  0.90870000  0.87320000  0.50000000  1
  O  O31  1  0.40870000  0.37320000  0.50000000  1
  O  O32  1  0.07950000  0.00000000  0.34230000  1
  O  O33  1  0.57950000  0.50000000  0.34230000  1
  O  O34  1  0.92050000  0.00000000  0.34230000  1
  O  O35  1  0.42050000  0.50000000  0.34230000  1
  O  O36  1  0.92050000  0.00000000  0.65770000  1
  O  O37  1  0.42050000  0.50000000  0.65770000  1
  O  O38  1  0.07950000  0.00000000  0.65770000  1
  O  O39  1  0.57950000  0.50000000  0.65770000  1
  O  O40  1  0.11810000  0.18470000  0.30750000  1
  O  O41  1  0.61810000  0.68470000  0.30750000  1
  O  O42  1  0.88190000  0.18470000  0.30750000  1
  O  O43  1  0.38190000  0.68470000  0.30750000  1
  O  O44  1  0.11810000  0.81530000  0.30750000  1
  O  O45  1  0.61810000  0.31530000  0.30750000  1
  O  O46  1  0.88190000  0.81530000  0.30750000  1
  O  O47  1  0.38190000  0.31530000  0.30750000  1
  O  O48  1  0.88190000  0.81530000  0.69250000  1
  O  O49  1  0.38190000  0.31530000  0.69250000  1
  O  O50  1  0.11810000  0.81530000  0.69250000  1
  O  O51  1  0.61810000  0.31530000  0.69250000  1
  O  O52  1  0.88190000  0.18470000  0.69250000  1
  O  O53  1  0.38190000  0.68470000  0.69250000  1
  O  O54  1  0.11810000  0.18470000  0.69250000  1
  O  O55  1  0.61810000  0.68470000  0.69250000  1
  O  O56  1  0.00000000  0.15030000  0.36180000  1
  O  O57  1  0.50000000  0.65030000  0.36180000  1
  O  O58  1  0.00000000  0.84970000  0.36180000  1
  O  O59  1  0.50000000  0.34970000  0.36180000  1
  O  O60  1  0.00000000  0.84970000  0.63820000  1
  O  O61  1  0.50000000  0.34970000  0.63820000  1
  O  O62  1  0.00000000  0.15030000  0.63820000  1
  O  O63  1  0.50000000  0.65030000  0.63820000  1
  O  O64  1  0.21000000  0.12630000  0.18120000  1
  O  O65  1  0.71000000  0.62630000  0.18120000  1
  O  O66  1  0.79000000  0.12630000  0.18120000  1
  O  O67  1  0.29000000  0.62630000  0.18120000  1
  O  O68  1  0.21000000  0.87370000  0.18120000  1
  O  O69  1  0.71000000  0.37370000  0.18120000  1
  O  O70  1  0.79000000  0.87370000  0.18120000  1
  O  O71  1  0.29000000  0.37370000  0.18120000  1
  O  O72  1  0.79000000  0.87370000  0.81880000  1
  O  O73  1  0.29000000  0.37370000  0.81880000  1
  O  O74  1  0.21000000  0.87370000  0.81880000  1
  O  O75  1  0.71000000  0.37370000  0.81880000  1
  O  O76  1  0.79000000  0.12630000  0.81880000  1
  O  O77  1  0.29000000  0.62630000  0.81880000  1
  O  O78  1  0.21000000  0.12630000  0.81880000  1
  O  O79  1  0.71000000  0.62630000  0.81880000  1
  O  O80  1  0.17220000  0.31430000  0.17880000  1
  O  O81  1  0.67220000  0.81430000  0.17880000  1
  O  O82  1  0.82780000  0.31430000  0.17880000  1
  O  O83  1  0.32780000  0.81430000  0.17880000  1
  O  O84  1  0.17220000  0.68570000  0.17880000  1
  O  O85  1  0.67220000  0.18570000  0.17880000  1
  O  O86  1  0.82780000  0.68570000  0.17880000  1
  O  O87  1  0.32780000  0.18570000  0.17880000  1
  O  O88  1  0.82780000  0.68570000  0.82120000  1
  O  O89  1  0.32780000  0.18570000  0.82120000  1
  O  O90  1  0.17220000  0.68570000  0.82120000  1
  O  O91  1  0.67220000  0.18570000  0.82120000  1
  O  O92  1  0.82780000  0.31430000  0.82120000  1
  O  O93  1  0.32780000  0.81430000  0.82120000  1
  O  O94  1  0.17220000  0.31430000  0.82120000  1
  O  O95  1  0.67220000  0.81430000  0.82120000  1
  O  O96  1  0.29940000  0.00000000  0.12620000  1
  O  O97  1  0.79940000  0.50000000  0.12620000  1
  O  O98  1  0.70060000  0.00000000  0.12620000  1
  O  O99  1  0.20060000  0.50000000  0.12620000  1
  O  O100  1  0.70060000  0.00000000  0.87380000  1
  O  O101  1  0.20060000  0.50000000  0.87380000  1
  O  O102  1  0.29940000  0.00000000  0.87380000  1
  O  O103  1  0.79940000  0.50000000  0.87380000  1
  O  O104  1  0.26890000  0.14910000  0.00000000  1
  O  O105  1  0.76890000  0.64910000  0.00000000  1
  O  O106  1  0.73110000  0.14910000  0.00000000  1
  O  O107  1  0.23110000  0.64910000  0.00000000  1
  O  O108  1  0.26890000  0.85090000  0.00000000  1
  O  O109  1  0.76890000  0.35090000  0.00000000  1
  O  O110  1  0.73110000  0.85090000  0.00000000  1
  O  O111  1  0.23110000  0.35090000  0.00000000  1
