# generated using pymatgen
data_SiO4
_symmetry_space_group_name_H-M   'P 1'
_cell_length_a   14.70900000
_cell_length_b   27.53600000
_cell_length_c   8.31700000
_cell_angle_alpha   90.00000000
_cell_angle_beta   90.00000000
_cell_angle_gamma   90.00000000
_symmetry_Int_Tables_number   1
_chemical_formula_structural   SiO4
_chemical_formula_sum   'Si1 O4'
_cell_volume   3368.60975861
_cell_formula_units_Z   1
loop_
 _symmetry_equiv_pos_site_id
 _symmetry_equiv_pos_as_xyz
  1  'x, y, z'
loop_
 _atom_site_type_symbol
 _atom_site_label
 _atom_site_symmetry_multiplicity
 _atom_site_fract_x
 _atom_site_fract_y
 _atom_site_fract_z
 _atom_site_occupancy
  Si  Si0  1  0.09520000  0.22410000  0.31480000  1
  O  O1  1  0.00000000  0.20280000  0.25000000  1
  O  O2  1  0.17290000  0.18330000  0.29930000  1
  O  O3  1  0.12130000  0.27100000  0.20850000  1
  O  O4  1  0.08430000  0.24000000  0.50000000  1
