# generated using pymatgen
data_Si
_symmetry_space_group_name_H-M   'P 1'
_cell_length_a   14.70900000
_cell_length_b   27.53600000
_cell_length_c   8.31700000
_cell_angle_alpha   90.00000000
_cell_angle_beta   90.00000000
_cell_angle_gamma   90.00000000
_symmetry_Int_Tables_number   1
_chemical_formula_structural   Si
_chemical_formula_sum   Si64
_cell_volume   3368.60975861
_cell_formula_units_Z   64
loop_
 _symmetry_equiv_pos_site_id
 _symmetry_equiv_pos_as_xyz
  1  'x, y, z'
loop_
 _atom_site_type_symbol
 _atom_site_label
 _atom_site_symmetry_multiplicity
 _atom_site_fract_x
 _atom_site_fract_y
 _atom_site_fract_z
 _atom_site_occupancy
  Si  Si0  1  0.90480000  0.77590000  0.68520000  1
  Si  Si1  1  0.40480000  0.27590000  0.18520000  1
  Si  Si2  1  0.09520000  0.22410000  0.68520000  1
  Si  Si3  1  0.59520000  0.72410000  0.18520000  1
  Si  Si4  1  0.59520000  0.27590000  0.31480000  1
  Si  Si5  1  0.09520000  0.77590000  0.81480000  1
  Si  Si6  1  0.40480000  0.72410000  0.31480000  1
  Si  Si7  1  0.90480000  0.22410000  0.81480000  1
  Si  Si8  1  0.09520000  0.22410000  0.31480000  1
  Si  Si9  1  0.59520000  0.72410000  0.81480000  1
  Si  Si10  1  0.90480000  0.77590000  0.31480000  1
  Si  Si11  1  0.40480000  0.27590000  0.81480000  1
  Si  Si12  1  0.40480000  0.72410000  0.68520000  1
  Si  Si13  1  0.90480000  0.22410000  0.18520000  1
  Si  Si14  1  0.59520000  0.27590000  0.68520000  1
  Si  Si15  1  0.09520000  0.77590000  0.18520000  1
  Si  Si16  1  0.89940000  0.67200000  0.18680000  1
  Si  Si17  1  0.39940000  0.17200000  0.68680000  1
  Si  Si18  1  0.10060000  0.32800000  0.18680000  1
  Si  Si19  1  0.60060000  0.82800000  0.68680000  1
  Si  Si20  1  0.60060000  0.17200000  0.81320000  1
  Si  Si21  1  0.10060000  0.67200000  0.31320000  1
  Si  Si22  1  0.39940000  0.82800000  0.81320000  1
  Si  Si23  1  0.89940000  0.32800000  0.31320000  1
  Si  Si24  1  0.10060000  0.32800000  0.81320000  1
  Si  Si25  1  0.60060000  0.82800000  0.31320000  1
  Si  Si26  1  0.89940000  0.67200000  0.81320000  1
  Si  Si27  1  0.39940000  0.17200000  0.31320000  1
  Si  Si28  1  0.39940000  0.82800000  0.18680000  1
  Si  Si29  1  0.89940000  0.32800000  0.68680000  1
  Si  Si30  1  0.60060000  0.17200000  0.18680000  1
  Si  Si31  1  0.10060000  0.67200000  0.68680000  1
  Si  Si32  1  0.71690000  0.64240000  0.68480000  1
  Si  Si33  1  0.21690000  0.14240000  0.18480000  1
  Si  Si34  1  0.28310000  0.35760000  0.68480000  1
  Si  Si35  1  0.78310000  0.85760000  0.18480000  1
  Si  Si36  1  0.78310000  0.14240000  0.31520000  1
  Si  Si37  1  0.28310000  0.64240000  0.81520000  1
  Si  Si38  1  0.21690000  0.85760000  0.31520000  1
  Si  Si39  1  0.71690000  0.35760000  0.81520000  1
  Si  Si40  1  0.28310000  0.35760000  0.31520000  1
  Si  Si41  1  0.78310000  0.85760000  0.81520000  1
  Si  Si42  1  0.71690000  0.64240000  0.31520000  1
  Si  Si43  1  0.21690000  0.14240000  0.81520000  1
  Si  Si44  1  0.21690000  0.85760000  0.68480000  1
  Si  Si45  1  0.71690000  0.35760000  0.18480000  1
  Si  Si46  1  0.78310000  0.14240000  0.68480000  1
  Si  Si47  1  0.28310000  0.64240000  0.18480000  1
  Si  Si48  1  0.40000000  0.55470000  0.69240000  1
  Si  Si49  1  0.90000000  0.05470000  0.19240000  1
  Si  Si50  1  0.60000000  0.44530000  0.69240000  1
  Si  Si51  1  0.10000000  0.94530000  0.19240000  1
  Si  Si52  1  0.10000000  0.05470000  0.30760000  1
  Si  Si53  1  0.60000000  0.55470000  0.80760000  1
  Si  Si54  1  0.90000000  0.94530000  0.30760000  1
  Si  Si55  1  0.40000000  0.44530000  0.80760000  1
  Si  Si56  1  0.60000000  0.44530000  0.30760000  1
  Si  Si57  1  0.10000000  0.94530000  0.80760000  1
  Si  Si58  1  0.40000000  0.55470000  0.30760000  1
  Si  Si59  1  0.90000000  0.05470000  0.80760000  1
  Si  Si60  1  0.90000000  0.94530000  0.69240000  1
  Si  Si61  1  0.40000000  0.44530000  0.19240000  1
  Si  Si62  1  0.10000000  0.05470000  0.69240000  1
  Si  Si63  1  0.60000000  0.55470000  0.19240000  1
