# generated using pymatgen
data_O2
_symmetry_space_group_name_H-M   'P 1'
_cell_length_a   14.70900000
_cell_length_b   27.53600000
_cell_length_c   8.31700000
_cell_angle_alpha   90.00000000
_cell_angle_beta   90.00000000
_cell_angle_gamma   90.00000000
_symmetry_Int_Tables_number   1
_chemical_formula_structural   O2
_chemical_formula_sum   O128
_cell_volume   3368.60975861
_cell_formula_units_Z   64
loop_
 _symmetry_equiv_pos_site_id
 _symmetry_equiv_pos_as_xyz
  1  'x, y, z'
loop_
 _atom_site_type_symbol
 _atom_site_label
 _atom_site_symmetry_multiplicity
 _atom_site_fract_x
 _atom_site_fract_y
 _atom_site_fract_z
 _atom_site_occupancy
  O  O0  1  0.00000000  0.79720000  0.75000000  1
  O  O1  1  0.50000000  0.29720000  0.25000000  1
  O  O2  1  0.00000000  0.20280000  0.75000000  1
  O  O3  1  0.50000000  0.70280000  0.25000000  1
  O  O4  1  0.00000000  0.20280000  0.25000000  1
  O  O5  1  0.50000000  0.70280000  0.75000000  1
  O  O6  1  0.00000000  0.79720000  0.25000000  1
  O  O7  1  0.50000000  0.29720000  0.75000000  1
  O  O8  1  0.82710000  0.81670000  0.70070000  1
  O  O9  1  0.32710000  0.31670000  0.20070000  1
  O  O10  1  0.17290000  0.18330000  0.70070000  1
  O  O11  1  0.67290000  0.68330000  0.20070000  1
  O  O12  1  0.67290000  0.31670000  0.29930000  1
  O  O13  1  0.17290000  0.81670000  0.79930000  1
  O  O14  1  0.32710000  0.68330000  0.29930000  1
  O  O15  1  0.82710000  0.18330000  0.79930000  1
  O  O16  1  0.17290000  0.18330000  0.29930000  1
  O  O17  1  0.67290000  0.68330000  0.79930000  1
  O  O18  1  0.82710000  0.81670000  0.29930000  1
  O  O19  1  0.32710000  0.31670000  0.79930000  1
  O  O20  1  0.32710000  0.68330000  0.70070000  1
  O  O21  1  0.82710000  0.18330000  0.20070000  1
  O  O22  1  0.67290000  0.31670000  0.70070000  1
  O  O23  1  0.17290000  0.81670000  0.20070000  1
  O  O24  1  0.87870000  0.72900000  0.79150000  1
  O  O25  1  0.37870000  0.22900000  0.29150000  1
  O  O26  1  0.12130000  0.27100000  0.79150000  1
  O  O27  1  0.62130000  0.77100000  0.29150000  1
  O  O28  1  0.62130000  0.22900000  0.20850000  1
  O  O29  1  0.12130000  0.72900000  0.70850000  1
  O  O30  1  0.37870000  0.77100000  0.20850000  1
  O  O31  1  0.87870000  0.27100000  0.70850000  1
  O  O32  1  0.12130000  0.27100000  0.20850000  1
  O  O33  1  0.62130000  0.77100000  0.70850000  1
  O  O34  1  0.87870000  0.72900000  0.20850000  1
  O  O35  1  0.37870000  0.22900000  0.70850000  1
  O  O36  1  0.37870000  0.77100000  0.79150000  1
  O  O37  1  0.87870000  0.27100000  0.29150000  1
  O  O38  1  0.62130000  0.22900000  0.79150000  1
  O  O39  1  0.12130000  0.72900000  0.29150000  1
  O  O40  1  0.91570000  0.76000000  0.50000000  1
  O  O41  1  0.41570000  0.26000000  0.00000000  1
  O  O42  1  0.08430000  0.24000000  0.50000000  1
  O  O43  1  0.58430000  0.74000000  0.00000000  1
  O  O44  1  0.58430000  0.26000000  0.50000000  1
  O  O45  1  0.08430000  0.76000000  0.00000000  1
  O  O46  1  0.41570000  0.74000000  0.50000000  1
  O  O47  1  0.91570000  0.24000000  0.00000000  1
  O  O48  1  0.82540000  0.64150000  0.28790000  1
  O  O49  1  0.32540000  0.14150000  0.78790000  1
  O  O50  1  0.17460000  0.35850000  0.28790000  1
  O  O51  1  0.67460000  0.85850000  0.78790000  1
  O  O52  1  0.67460000  0.14150000  0.71210000  1
  O  O53  1  0.17460000  0.64150000  0.21210000  1
  O  O54  1  0.32540000  0.85850000  0.71210000  1
  O  O55  1  0.82540000  0.35850000  0.21210000  1
  O  O56  1  0.17460000  0.35850000  0.71210000  1
  O  O57  1  0.67460000  0.85850000  0.21210000  1
  O  O58  1  0.82540000  0.64150000  0.71210000  1
  O  O59  1  0.32540000  0.14150000  0.21210000  1
  O  O60  1  0.32540000  0.85850000  0.28790000  1
  O  O61  1  0.82540000  0.35850000  0.78790000  1
  O  O62  1  0.67460000  0.14150000  0.28790000  1
  O  O63  1  0.17460000  0.64150000  0.78790000  1
  O  O64  1  0.00000000  0.65930000  0.25000000  1
  O  O65  1  0.50000000  0.15930000  0.75000000  1
  O  O66  1  0.00000000  0.34070000  0.25000000  1
  O  O67  1  0.50000000  0.84070000  0.75000000  1
  O  O68  1  0.00000000  0.34070000  0.75000000  1
  O  O69  1  0.50000000  0.84070000  0.25000000  1
  O  O70  1  0.00000000  0.65930000  0.75000000  1
  O  O71  1  0.50000000  0.15930000  0.25000000  1
  O  O72  1  0.89110000  0.65740000  0.00000000  1
  O  O73  1  0.39110000  0.15740000  0.50000000  1
  O  O74  1  0.10890000  0.34260000  0.00000000  1
  O  O75  1  0.60890000  0.84260000  0.50000000  1
  O  O76  1  0.60890000  0.15740000  0.00000000  1
  O  O77  1  0.10890000  0.65740000  0.50000000  1
  O  O78  1  0.39110000  0.84260000  0.00000000  1
  O  O79  1  0.89110000  0.34260000  0.50000000  1
  O  O80  1  0.69530000  0.65530000  0.50000000  1
  O  O81  1  0.19530000  0.15530000  0.00000000  1
  O  O82  1  0.30470000  0.34470000  0.50000000  1
  O  O83  1  0.80470000  0.84470000  0.00000000  1
  O  O84  1  0.80470000  0.15530000  0.50000000  1
  O  O85  1  0.30470000  0.65530000  0.00000000  1
  O  O86  1  0.19530000  0.84470000  0.50000000  1
  O  O87  1  0.69530000  0.34470000  0.00000000  1
  O  O88  1  0.67460000  0.59010000  0.72800000  1
  O  O89  1  0.17460000  0.09010000  0.22800000  1
  O  O90  1  0.32540000  0.40990000  0.72800000  1
  O  O91  1  0.82540000  0.90990000  0.22800000  1
  O  O92  1  0.82540000  0.09010000  0.27200000  1
  O  O93  1  0.32540000  0.59010000  0.77200000  1
  O  O94  1  0.17460000  0.90990000  0.27200000  1
  O  O95  1  0.67460000  0.40990000  0.77200000  1
  O  O96  1  0.32540000  0.40990000  0.27200000  1
  O  O97  1  0.82540000  0.90990000  0.77200000  1
  O  O98  1  0.67460000  0.59010000  0.27200000  1
  O  O99  1  0.17460000  0.09010000  0.77200000  1
  O  O100  1  0.17460000  0.90990000  0.72800000  1
  O  O101  1  0.67460000  0.40990000  0.22800000  1
  O  O102  1  0.82540000  0.09010000  0.72800000  1
  O  O103  1  0.32540000  0.59010000  0.22800000  1
  O  O104  1  0.50000000  0.57070000  0.75000000  1
  O  O105  1  0.00000000  0.07070000  0.25000000  1
  O  O106  1  0.50000000  0.42930000  0.75000000  1
  O  O107  1  0.00000000  0.92930000  0.25000000  1
  O  O108  1  0.50000000  0.42930000  0.25000000  1
  O  O109  1  0.00000000  0.92930000  0.75000000  1
  O  O110  1  0.50000000  0.57070000  0.25000000  1
  O  O111  1  0.00000000  0.07070000  0.75000000  1
  O  O112  1  0.39280000  0.55820000  0.50000000  1
  O  O113  1  0.89280000  0.05820000  0.00000000  1
  O  O114  1  0.60720000  0.44180000  0.50000000  1
  O  O115  1  0.10720000  0.94180000  0.00000000  1
  O  O116  1  0.10720000  0.05820000  0.50000000  1
  O  O117  1  0.60720000  0.55820000  0.00000000  1
  O  O118  1  0.89280000  0.94180000  0.50000000  1
  O  O119  1  0.39280000  0.44180000  0.00000000  1
  O  O120  1  0.37950000  0.50000000  0.75000000  1
  O  O121  1  0.87950000  0.00000000  0.25000000  1
  O  O122  1  0.62050000  0.50000000  0.75000000  1
  O  O123  1  0.12050000  0.00000000  0.25000000  1
  O  O124  1  0.62050000  0.50000000  0.25000000  1
  O  O125  1  0.12050000  0.00000000  0.75000000  1
  O  O126  1  0.37950000  0.50000000  0.25000000  1
  O  O127  1  0.87950000  0.00000000  0.75000000  1
