# generated using pymatgen
data_SiO4
_symmetry_space_group_name_H-M   'P 1'
_cell_length_a   15.15117000
_cell_length_b   15.15117000
_cell_length_c   11.84800000
_cell_angle_alpha   90.00000000
_cell_angle_beta   90.00000000
_cell_angle_gamma   90.00000000
_symmetry_Int_Tables_number   1
_chemical_formula_structural   SiO4
_chemical_formula_sum   'Si1 O4'
_cell_volume   2719.80261967
_cell_formula_units_Z   1
loop_
 _symmetry_equiv_pos_site_id
 _symmetry_equiv_pos_as_xyz
  1  'x, y, z'
loop_
 _atom_site_type_symbol
 _atom_site_label
 _atom_site_symmetry_multiplicity
 _atom_site_fract_x
 _atom_site_fract_y
 _atom_site_fract_z
 _atom_site_occupancy
  Si  Si0  1  0.59107000  0.76799000  0.18749000  1
  O  O1  1  0.62203000  0.68549000  0.11136000  1
  O  O2  1  0.53776000  0.73031000  0.29469000  1
  O  O3  1  0.67593000  0.82407000  0.22718000  1
  O  O4  1  0.52880000  0.83051000  0.11157000  1
