# generated using pymatgen
data_O2
_symmetry_space_group_name_H-M   'P 1'
_cell_length_a   15.15117000
_cell_length_b   15.15117000
_cell_length_c   11.84800000
_cell_angle_alpha   90.00000000
_cell_angle_beta   90.00000000
_cell_angle_gamma   90.00000000
_symmetry_Int_Tables_number   1
_chemical_formula_structural   O2
_chemical_formula_sum   O96
_cell_volume   2719.80261967
_cell_formula_units_Z   48
loop_
 _symmetry_equiv_pos_site_id
 _symmetry_equiv_pos_as_xyz
  1  'x, y, z'
loop_
 _atom_site_type_symbol
 _atom_site_label
 _atom_site_symmetry_multiplicity
 _atom_site_fract_x
 _atom_site_fract_y
 _atom_site_fract_z
 _atom_site_occupancy
  O  O0  1  0.12203000  0.81451000  0.11136000  1
  O  O1  1  0.87797000  0.18549000  0.11136000  1
  O  O2  1  0.62203000  0.68549000  0.11136000  1
  O  O3  1  0.37797000  0.31451000  0.11136000  1
  O  O4  1  0.18549000  0.12203000  0.11136000  1
  O  O5  1  0.81451000  0.87797000  0.11136000  1
  O  O6  1  0.31451000  0.62203000  0.11136000  1
  O  O7  1  0.68549000  0.37797000  0.11136000  1
  O  O8  1  0.87797000  0.18549000  0.88864000  1
  O  O9  1  0.12203000  0.81451000  0.88864000  1
  O  O10  1  0.37797000  0.31451000  0.88864000  1
  O  O11  1  0.62203000  0.68549000  0.88864000  1
  O  O12  1  0.81451000  0.87797000  0.88864000  1
  O  O13  1  0.18549000  0.12203000  0.88864000  1
  O  O14  1  0.68549000  0.37797000  0.88864000  1
  O  O15  1  0.31451000  0.62203000  0.88864000  1
  O  O16  1  0.03776000  0.76969000  0.29469000  1
  O  O17  1  0.96224000  0.23031000  0.29469000  1
  O  O18  1  0.53776000  0.73031000  0.29469000  1
  O  O19  1  0.46224000  0.26969000  0.29469000  1
  O  O20  1  0.23031000  0.03776000  0.29469000  1
  O  O21  1  0.76969000  0.96224000  0.29469000  1
  O  O22  1  0.26969000  0.53776000  0.29469000  1
  O  O23  1  0.73031000  0.46224000  0.29469000  1
  O  O24  1  0.96224000  0.23031000  0.70531000  1
  O  O25  1  0.03776000  0.76969000  0.70531000  1
  O  O26  1  0.46224000  0.26969000  0.70531000  1
  O  O27  1  0.53776000  0.73031000  0.70531000  1
  O  O28  1  0.76969000  0.96224000  0.70531000  1
  O  O29  1  0.23031000  0.03776000  0.70531000  1
  O  O30  1  0.73031000  0.46224000  0.70531000  1
  O  O31  1  0.26969000  0.53776000  0.70531000  1
  O  O32  1  0.17593000  0.67593000  0.22718000  1
  O  O33  1  0.82407000  0.32407000  0.22718000  1
  O  O34  1  0.67593000  0.82407000  0.22718000  1
  O  O35  1  0.32407000  0.17593000  0.22718000  1
  O  O36  1  0.82407000  0.32407000  0.77282000  1
  O  O37  1  0.17593000  0.67593000  0.77282000  1
  O  O38  1  0.32407000  0.17593000  0.77282000  1
  O  O39  1  0.67593000  0.82407000  0.77282000  1
  O  O40  1  0.02880000  0.66949000  0.11157000  1
  O  O41  1  0.97120000  0.33051000  0.11157000  1
  O  O42  1  0.52880000  0.83051000  0.11157000  1
  O  O43  1  0.47120000  0.16949000  0.11157000  1
  O  O44  1  0.33051000  0.02880000  0.11157000  1
  O  O45  1  0.66949000  0.97120000  0.11157000  1
  O  O46  1  0.16949000  0.52880000  0.11157000  1
  O  O47  1  0.83051000  0.47120000  0.11157000  1
  O  O48  1  0.97120000  0.33051000  0.88843000  1
  O  O49  1  0.02880000  0.66949000  0.88843000  1
  O  O50  1  0.47120000  0.16949000  0.88843000  1
  O  O51  1  0.52880000  0.83051000  0.88843000  1
  O  O52  1  0.66949000  0.97120000  0.88843000  1
  O  O53  1  0.33051000  0.02880000  0.88843000  1
  O  O54  1  0.83051000  0.47120000  0.88843000  1
  O  O55  1  0.16949000  0.52880000  0.88843000  1
  O  O56  1  0.07136000  0.22106000  0.00000000  1
  O  O57  1  0.92864000  0.77894000  0.00000000  1
  O  O58  1  0.57136000  0.27894000  0.00000000  1
  O  O59  1  0.42864000  0.72106000  0.00000000  1
  O  O60  1  0.77894000  0.07136000  0.00000000  1
  O  O61  1  0.22106000  0.92864000  0.00000000  1
  O  O62  1  0.72106000  0.57136000  0.00000000  1
  O  O63  1  0.27894000  0.42864000  0.00000000  1
  O  O64  1  0.10984000  0.39016000  0.00000000  1
  O  O65  1  0.89016000  0.60984000  0.00000000  1
  O  O66  1  0.60984000  0.10984000  0.00000000  1
  O  O67  1  0.39016000  0.89016000  0.00000000  1
  O  O68  1  0.23872000  0.26128000  0.00000000  1
  O  O69  1  0.76128000  0.73872000  0.00000000  1
  O  O70  1  0.73872000  0.23872000  0.00000000  1
  O  O71  1  0.26128000  0.76128000  0.00000000  1
  O  O72  1  0.09964000  0.92834000  0.33986000  1
  O  O73  1  0.90036000  0.07166000  0.33986000  1
  O  O74  1  0.59964000  0.57166000  0.33986000  1
  O  O75  1  0.40036000  0.42834000  0.33986000  1
  O  O76  1  0.07166000  0.09964000  0.33986000  1
  O  O77  1  0.92834000  0.90036000  0.33986000  1
  O  O78  1  0.42834000  0.59964000  0.33986000  1
  O  O79  1  0.57166000  0.40036000  0.33986000  1
  O  O80  1  0.90036000  0.07166000  0.66014000  1
  O  O81  1  0.09964000  0.92834000  0.66014000  1
  O  O82  1  0.40036000  0.42834000  0.66014000  1
  O  O83  1  0.59964000  0.57166000  0.66014000  1
  O  O84  1  0.92834000  0.90036000  0.66014000  1
  O  O85  1  0.07166000  0.09964000  0.66014000  1
  O  O86  1  0.57166000  0.40036000  0.66014000  1
  O  O87  1  0.42834000  0.59964000  0.66014000  1
  O  O88  1  0.02738000  0.83236000  0.50000000  1
  O  O89  1  0.97262000  0.16764000  0.50000000  1
  O  O90  1  0.52738000  0.66764000  0.50000000  1
  O  O91  1  0.47262000  0.33236000  0.50000000  1
  O  O92  1  0.16764000  0.02738000  0.50000000  1
  O  O93  1  0.83236000  0.97262000  0.50000000  1
  O  O94  1  0.33236000  0.52738000  0.50000000  1
  O  O95  1  0.66764000  0.47262000  0.50000000  1
