# generated using pymatgen
data_Si
_symmetry_space_group_name_H-M   'P 1'
_cell_length_a   15.15117000
_cell_length_b   15.15117000
_cell_length_c   11.84800000
_cell_angle_alpha   90.00000000
_cell_angle_beta   90.00000000
_cell_angle_gamma   90.00000000
_symmetry_Int_Tables_number   1
_chemical_formula_structural   Si
_chemical_formula_sum   Si48
_cell_volume   2719.80261967
_cell_formula_units_Z   48
loop_
 _symmetry_equiv_pos_site_id
 _symmetry_equiv_pos_as_xyz
  1  'x, y, z'
loop_
 _atom_site_type_symbol
 _atom_site_label
 _atom_site_symmetry_multiplicity
 _atom_site_fract_x
 _atom_site_fract_y
 _atom_site_fract_z
 _atom_site_occupancy
  Si  Si0  1  0.09107000  0.73201000  0.18749000  1
  Si  Si1  1  0.90893000  0.26799000  0.18749000  1
  Si  Si2  1  0.59107000  0.76799000  0.18749000  1
  Si  Si3  1  0.40893000  0.23201000  0.18749000  1
  Si  Si4  1  0.26799000  0.09107000  0.18749000  1
  Si  Si5  1  0.73201000  0.90893000  0.18749000  1
  Si  Si6  1  0.23201000  0.59107000  0.18749000  1
  Si  Si7  1  0.76799000  0.40893000  0.18749000  1
  Si  Si8  1  0.90893000  0.26799000  0.81251000  1
  Si  Si9  1  0.09107000  0.73201000  0.81251000  1
  Si  Si10  1  0.40893000  0.23201000  0.81251000  1
  Si  Si11  1  0.59107000  0.76799000  0.81251000  1
  Si  Si12  1  0.73201000  0.90893000  0.81251000  1
  Si  Si13  1  0.26799000  0.09107000  0.81251000  1
  Si  Si14  1  0.76799000  0.40893000  0.81251000  1
  Si  Si15  1  0.23201000  0.59107000  0.81251000  1
  Si  Si16  1  0.02320000  0.85792000  0.36828000  1
  Si  Si17  1  0.97680000  0.14208000  0.36828000  1
  Si  Si18  1  0.52320000  0.64208000  0.36828000  1
  Si  Si19  1  0.47680000  0.35792000  0.36828000  1
  Si  Si20  1  0.14208000  0.02320000  0.36828000  1
  Si  Si21  1  0.85792000  0.97680000  0.36828000  1
  Si  Si22  1  0.35792000  0.52320000  0.36828000  1
  Si  Si23  1  0.64208000  0.47680000  0.36828000  1
  Si  Si24  1  0.97680000  0.14208000  0.63172000  1
  Si  Si25  1  0.02320000  0.85792000  0.63172000  1
  Si  Si26  1  0.47680000  0.35792000  0.63172000  1
  Si  Si27  1  0.52320000  0.64208000  0.63172000  1
  Si  Si28  1  0.85792000  0.97680000  0.63172000  1
  Si  Si29  1  0.14208000  0.02320000  0.63172000  1
  Si  Si30  1  0.64208000  0.47680000  0.63172000  1
  Si  Si31  1  0.35792000  0.52320000  0.63172000  1
  Si  Si32  1  0.03087000  0.31941000  0.00000000  1
  Si  Si33  1  0.96913000  0.68059000  0.00000000  1
  Si  Si34  1  0.53087000  0.18059000  0.00000000  1
  Si  Si35  1  0.46913000  0.81941000  0.00000000  1
  Si  Si36  1  0.68059000  0.03087000  0.00000000  1
  Si  Si37  1  0.31941000  0.96913000  0.00000000  1
  Si  Si38  1  0.81941000  0.53087000  0.00000000  1
  Si  Si39  1  0.18059000  0.46913000  0.00000000  1
  Si  Si40  1  0.16973000  0.18076000  0.00000000  1
  Si  Si41  1  0.83027000  0.81924000  0.00000000  1
  Si  Si42  1  0.66973000  0.31924000  0.00000000  1
  Si  Si43  1  0.33027000  0.68076000  0.00000000  1
  Si  Si44  1  0.81924000  0.16973000  0.00000000  1
  Si  Si45  1  0.18076000  0.83027000  0.00000000  1
  Si  Si46  1  0.68076000  0.66973000  0.00000000  1
  Si  Si47  1  0.31924000  0.33027000  0.00000000  1
