# generated using pymatgen
data_O2
_symmetry_space_group_name_H-M   'P 1'
_cell_length_a   13.02702000
_cell_length_b   11.18216000
_cell_length_c   9.21893000
_cell_angle_alpha   92.35000000
_cell_angle_beta   107.30000000
_cell_angle_gamma   104.50000000
_symmetry_Int_Tables_number   1
_chemical_formula_structural   O2
_chemical_formula_sum   O40
_cell_volume   1231.60862277
_cell_formula_units_Z   20
loop_
 _symmetry_equiv_pos_site_id
 _symmetry_equiv_pos_as_xyz
  1  'x, y, z'
loop_
 _atom_site_type_symbol
 _atom_site_label
 _atom_site_symmetry_multiplicity
 _atom_site_fract_x
 _atom_site_fract_y
 _atom_site_fract_z
 _atom_site_occupancy
  O  O0  1  0.23522000  0.50073000  0.04830000  1
  O  O1  1  0.76478000  0.49927000  0.95170000  1
  O  O2  1  0.35815000  0.42043000  0.28854000  1
  O  O3  1  0.64185000  0.57957000  0.71146000  1
  O  O4  1  0.31679000  0.63613000  0.31884000  1
  O  O5  1  0.68321000  0.36387000  0.68116000  1
  O  O6  1  0.15481000  0.42942000  0.26755000  1
  O  O7  1  0.84519000  0.57058000  0.73245000  1
  O  O8  1  0.36851000  0.68044000  0.96262000  1
  O  O9  1  0.63149000  0.31956000  0.03738000  1
  O  O10  1  0.16879000  0.57380000  0.77454000  1
  O  O11  1  0.83121000  0.42620000  0.22546000  1
  O  O12  1  0.32046000  0.44829000  0.83827000  1
  O  O13  1  0.67954000  0.55171000  0.16173000  1
  O  O14  1  0.34409000  0.25571000  0.68677000  1
  O  O15  1  0.65591000  0.74429000  0.31323000  1
  O  O16  1  0.42320000  0.48427000  0.63298000  1
  O  O17  1  0.57680000  0.51573000  0.36702000  1
  O  O18  1  0.20446000  0.37782000  0.54970000  1
  O  O19  1  0.79554000  0.62218000  0.45030000  1
  O  O20  1  0.11965000  0.56535000  0.47675000  1
  O  O21  1  0.88035000  0.43465000  0.52325000  1
  O  O22  1  0.99254000  0.33633000  0.38182000  1
  O  O23  1  0.00746000  0.66367000  0.61818000  1
  O  O24  1  0.32614000  0.01513000  0.65821000  1
  O  O25  1  0.67386000  0.98487000  0.34179000  1
  O  O26  1  0.51802000  0.17604000  0.68701000  1
  O  O27  1  0.48198000  0.82396000  0.31299000  1
  O  O28  1  0.43887000  0.15366000  0.92132000  1
  O  O29  1  0.56113000  0.84634000  0.07868000  1
  O  O30  1  0.42937000  0.86219000  0.80594000  1
  O  O31  1  0.57063000  0.13781000  0.19406000  1
  O  O32  1  0.21660000  0.78094000  0.64782000  1
  O  O33  1  0.78340000  0.21906000  0.35218000  1
  O  O34  1  0.36831000  0.84023000  0.50510000  1
  O  O35  1  0.63169000  0.15977000  0.49490000  1
  O  O36  1  0.47330000  0.31836000  0.15866000  1
  O  O37  1  0.52670000  0.68164000  0.84134000  1
  O  O38  1  0.49459000  0.30109000  0.44978000  1
  O  O39  1  0.50541000  0.69891000  0.55022000  1
