# generated using pymatgen
data_SiO4
_symmetry_space_group_name_H-M   'P 1'
_cell_length_a   13.02702000
_cell_length_b   11.18216000
_cell_length_c   9.21893000
_cell_angle_alpha   92.35000000
_cell_angle_beta   107.30000000
_cell_angle_gamma   104.50000000
_symmetry_Int_Tables_number   1
_chemical_formula_structural   SiO4
_chemical_formula_sum   'Si1 O4'
_cell_volume   1231.60862277
_cell_formula_units_Z   1
loop_
 _symmetry_equiv_pos_site_id
 _symmetry_equiv_pos_as_xyz
  1  'x, y, z'
loop_
 _atom_site_type_symbol
 _atom_site_label
 _atom_site_symmetry_multiplicity
 _atom_site_fract_x
 _atom_site_fract_y
 _atom_site_fract_z
 _atom_site_occupancy
  Si  Si0  1  0.87102000  0.35302000  0.36944000  1
  O  O1  1  0.83121000  0.42620000  0.22546000  1
  O  O2  1  0.88035000  0.43465000  0.52325000  1
  O  O3  1  0.99254000  0.33633000  0.38182000  1
  O  O4  1  0.78340000  0.21906000  0.35218000  1
