# generated using pymatgen
data_SiO4
_symmetry_space_group_name_H-M   'P 1'
_cell_length_a   13.02702000
_cell_length_b   11.18216000
_cell_length_c   9.21893000
_cell_angle_alpha   92.35000000
_cell_angle_beta   107.30000000
_cell_angle_gamma   104.50000000
_symmetry_Int_Tables_number   1
_chemical_formula_structural   SiO4
_chemical_formula_sum   'Si1 O4'
_cell_volume   1231.60862277
_cell_formula_units_Z   1
loop_
 _symmetry_equiv_pos_site_id
 _symmetry_equiv_pos_as_xyz
  1  'x, y, z'
loop_
 _atom_site_type_symbol
 _atom_site_label
 _atom_site_symmetry_multiplicity
 _atom_site_fract_x
 _atom_site_fract_y
 _atom_site_fract_z
 _atom_site_occupancy
  Si  Si0  1  0.59266000  0.84955000  0.26176000  1
  O  O1  1  0.65591000  0.74429000  0.31323000  1
  O  O2  1  0.67386000  0.98487000  0.34179000  1
  O  O3  1  0.48198000  0.82396000  0.31299000  1
  O  O4  1  0.56113000  0.84634000  0.07868000  1
