# generated using pymatgen
data_SiO4
_symmetry_space_group_name_H-M   'P 1'
_cell_length_a   13.02702000
_cell_length_b   11.18216000
_cell_length_c   9.21893000
_cell_angle_alpha   92.35000000
_cell_angle_beta   107.30000000
_cell_angle_gamma   104.50000000
_symmetry_Int_Tables_number   1
_chemical_formula_structural   SiO4
_chemical_formula_sum   'Si1 O4'
_cell_volume   1231.60862277
_cell_formula_units_Z   1
loop_
 _symmetry_equiv_pos_site_id
 _symmetry_equiv_pos_as_xyz
  1  'x, y, z'
loop_
 _atom_site_type_symbol
 _atom_site_label
 _atom_site_symmetry_multiplicity
 _atom_site_fract_x
 _atom_site_fract_y
 _atom_site_fract_z
 _atom_site_occupancy
  Si  Si0  1  0.27274000  0.55021000  0.90534000  1
  O  O1  1  0.23522000  0.50073000  1.04830000  1
  O  O2  1  0.36851000  0.68044000  0.96262000  1
  O  O3  1  0.16879000  0.57380000  0.77454000  1
  O  O4  1  0.32046000  0.44829000  0.83827000  1
