# generated using pymatgen
data_O2
_symmetry_space_group_name_H-M   'P 1'
_cell_length_a   20.63400000
_cell_length_b   20.63400000
_cell_length_c   8.42600000
_cell_angle_alpha   90.00000000
_cell_angle_beta   90.00000000
_cell_angle_gamma   120.00000000
_symmetry_Int_Tables_number   1
_chemical_formula_structural   O2
_chemical_formula_sum   O96
_cell_volume   3106.84036425
_cell_formula_units_Z   48
loop_
 _symmetry_equiv_pos_site_id
 _symmetry_equiv_pos_as_xyz
  1  'x, y, z'
loop_
 _atom_site_type_symbol
 _atom_site_label
 _atom_site_symmetry_multiplicity
 _atom_site_fract_x
 _atom_site_fract_y
 _atom_site_fract_z
 _atom_site_occupancy
  O  O0  1  0.73450000  0.07500000  0.83830000  1
  O  O1  1  0.92500000  0.65950000  0.83830000  1
  O  O2  1  0.34050000  0.26550000  0.83830000  1
  O  O3  1  0.26550000  0.92500000  0.33830000  1
  O  O4  1  0.07500000  0.34050000  0.33830000  1
  O  O5  1  0.65950000  0.73450000  0.33830000  1
  O  O6  1  0.92500000  0.26550000  0.83830000  1
  O  O7  1  0.34050000  0.07500000  0.83830000  1
  O  O8  1  0.73450000  0.65950000  0.83830000  1
  O  O9  1  0.07500000  0.73450000  0.33830000  1
  O  O10  1  0.65950000  0.92500000  0.33830000  1
  O  O11  1  0.26550000  0.34050000  0.33830000  1
  O  O12  1  0.83260000  0.16740000  0.04700000  1
  O  O13  1  0.83260000  0.66520000  0.04700000  1
  O  O14  1  0.33480000  0.16740000  0.04700000  1
  O  O15  1  0.16740000  0.83260000  0.54700000  1
  O  O16  1  0.16740000  0.33480000  0.54700000  1
  O  O17  1  0.66520000  0.83260000  0.54700000  1
  O  O18  1  0.69690000  0.14790000  0.03700000  1
  O  O19  1  0.85210000  0.54900000  0.03700000  1
  O  O20  1  0.45100000  0.30310000  0.03700000  1
  O  O21  1  0.30310000  0.85210000  0.53700000  1
  O  O22  1  0.14790000  0.45100000  0.53700000  1
  O  O23  1  0.54900000  0.69690000  0.53700000  1
  O  O24  1  0.85210000  0.30310000  0.03700000  1
  O  O25  1  0.45100000  0.14790000  0.03700000  1
  O  O26  1  0.69690000  0.54900000  0.03700000  1
  O  O27  1  0.14790000  0.69690000  0.53700000  1
  O  O28  1  0.54900000  0.85210000  0.53700000  1
  O  O29  1  0.30310000  0.45100000  0.53700000  1
  O  O30  1  0.71540000  0.03900000  0.14080000  1
  O  O31  1  0.96100000  0.67640000  0.14080000  1
  O  O32  1  0.32360000  0.28460000  0.14080000  1
  O  O33  1  0.28460000  0.96100000  0.64080000  1
  O  O34  1  0.03900000  0.32360000  0.64080000  1
  O  O35  1  0.67640000  0.71540000  0.64080000  1
  O  O36  1  0.96100000  0.28460000  0.14080000  1
  O  O37  1  0.32360000  0.03900000  0.14080000  1
  O  O38  1  0.71540000  0.67640000  0.14080000  1
  O  O39  1  0.03900000  0.71540000  0.64080000  1
  O  O40  1  0.67640000  0.96100000  0.64080000  1
  O  O41  1  0.28460000  0.32360000  0.64080000  1
  O  O42  1  0.72380000  0.27620000  0.15820000  1
  O  O43  1  0.72380000  0.44760000  0.15820000  1
  O  O44  1  0.55240000  0.27620000  0.15820000  1
  O  O45  1  0.27620000  0.72380000  0.65820000  1
  O  O46  1  0.27620000  0.55240000  0.65820000  1
  O  O47  1  0.44760000  0.72380000  0.65820000  1
  O  O48  1  0.58540000  0.17080000  0.10190000  1
  O  O49  1  0.82920000  0.41460000  0.10190000  1
  O  O50  1  0.58540000  0.41460000  0.10190000  1
  O  O51  1  0.41460000  0.82920000  0.60190000  1
  O  O52  1  0.17080000  0.58540000  0.60190000  1
  O  O53  1  0.41460000  0.58540000  0.60190000  1
  O  O54  1  0.66110000  0.15530000  0.33510000  1
  O  O55  1  0.84470000  0.50580000  0.33510000  1
  O  O56  1  0.49420000  0.33890000  0.33510000  1
  O  O57  1  0.33890000  0.84470000  0.83510000  1
  O  O58  1  0.15530000  0.49420000  0.83510000  1
  O  O59  1  0.50580000  0.66110000  0.83510000  1
  O  O60  1  0.84470000  0.33890000  0.33510000  1
  O  O61  1  0.49420000  0.15530000  0.33510000  1
  O  O62  1  0.66110000  0.50580000  0.33510000  1
  O  O63  1  0.15530000  0.66110000  0.83510000  1
  O  O64  1  0.50580000  0.84470000  0.83510000  1
  O  O65  1  0.33890000  0.49420000  0.83510000  1
  O  O66  1  0.58270000  0.92090000  0.08440000  1
  O  O67  1  0.07910000  0.66180000  0.08440000  1
  O  O68  1  0.33820000  0.41730000  0.08440000  1
  O  O69  1  0.41730000  0.07910000  0.58440000  1
  O  O70  1  0.92090000  0.33820000  0.58440000  1
  O  O71  1  0.66180000  0.58270000  0.58440000  1
  O  O72  1  0.07910000  0.41730000  0.08440000  1
  O  O73  1  0.33820000  0.92090000  0.08440000  1
  O  O74  1  0.58270000  0.66180000  0.08440000  1
  O  O75  1  0.92090000  0.58270000  0.58440000  1
  O  O76  1  0.66180000  0.07910000  0.58440000  1
  O  O77  1  0.41730000  0.33820000  0.58440000  1
  O  O78  1  0.59880000  0.00990000  0.31950000  1
  O  O79  1  0.99010000  0.58890000  0.31950000  1
  O  O80  1  0.41110000  0.40120000  0.31950000  1
  O  O81  1  0.40120000  0.99010000  0.81950000  1
  O  O82  1  0.00990000  0.41110000  0.81950000  1
  O  O83  1  0.58890000  0.59880000  0.81950000  1
  O  O84  1  0.99010000  0.40120000  0.31950000  1
  O  O85  1  0.41110000  0.00990000  0.31950000  1
  O  O86  1  0.59880000  0.58890000  0.31950000  1
  O  O87  1  0.00990000  0.59880000  0.81950000  1
  O  O88  1  0.58890000  0.99010000  0.81950000  1
  O  O89  1  0.40120000  0.41110000  0.81950000  1
  O  O90  1  0.53530000  0.07070000  0.48870000  1
  O  O91  1  0.92930000  0.46460000  0.48870000  1
  O  O92  1  0.53540000  0.46470000  0.48870000  1
  O  O93  1  0.46470000  0.92930000  0.98870000  1
  O  O94  1  0.07070000  0.53540000  0.98870000  1
  O  O95  1  0.46460000  0.53530000  0.98870000  1
