# generated using pymatgen
data_Si
_symmetry_space_group_name_H-M   'P 1'
_cell_length_a   20.63400000
_cell_length_b   20.63400000
_cell_length_c   8.42600000
_cell_angle_alpha   90.00000000
_cell_angle_beta   90.00000000
_cell_angle_gamma   120.00000000
_symmetry_Int_Tables_number   1
_chemical_formula_structural   Si
_chemical_formula_sum   Si48
_cell_volume   3106.84036425
_cell_formula_units_Z   48
loop_
 _symmetry_equiv_pos_site_id
 _symmetry_equiv_pos_as_xyz
  1  'x, y, z'
loop_
 _atom_site_type_symbol
 _atom_site_label
 _atom_site_symmetry_multiplicity
 _atom_site_fract_x
 _atom_site_fract_y
 _atom_site_fract_z
 _atom_site_occupancy
  Si  Si0  1  0.74570000  0.10730000  0.01650000  1
  Si  Si1  1  0.89270000  0.63840000  0.01650000  1
  Si  Si2  1  0.36160000  0.25430000  0.01650000  1
  Si  Si3  1  0.25430000  0.89270000  0.51650000  1
  Si  Si4  1  0.10730000  0.36160000  0.51650000  1
  Si  Si5  1  0.63840000  0.74570000  0.51650000  1
  Si  Si6  1  0.89270000  0.25430000  0.01650000  1
  Si  Si7  1  0.36160000  0.10730000  0.01650000  1
  Si  Si8  1  0.74570000  0.63840000  0.01650000  1
  Si  Si9  1  0.10730000  0.74570000  0.51650000  1
  Si  Si10  1  0.63840000  0.89270000  0.51650000  1
  Si  Si11  1  0.25430000  0.36160000  0.51650000  1
  Si  Si12  1  0.66680000  0.18720000  0.15810000  1
  Si  Si13  1  0.81280000  0.47960000  0.15810000  1
  Si  Si14  1  0.52040000  0.33320000  0.15810000  1
  Si  Si15  1  0.33320000  0.81280000  0.65810000  1
  Si  Si16  1  0.18720000  0.52040000  0.65810000  1
  Si  Si17  1  0.47960000  0.66680000  0.65810000  1
  Si  Si18  1  0.81280000  0.33320000  0.15810000  1
  Si  Si19  1  0.52040000  0.18720000  0.15810000  1
  Si  Si20  1  0.66680000  0.47960000  0.15810000  1
  Si  Si21  1  0.18720000  0.66680000  0.65810000  1
  Si  Si22  1  0.47960000  0.81280000  0.65810000  1
  Si  Si23  1  0.33320000  0.52040000  0.65810000  1
  Si  Si24  1  0.63960000  0.97390000  0.21990000  1
  Si  Si25  1  0.02610000  0.66570000  0.21990000  1
  Si  Si26  1  0.33430000  0.36040000  0.21990000  1
  Si  Si27  1  0.36040000  0.02610000  0.71990000  1
  Si  Si28  1  0.97390000  0.33430000  0.71990000  1
  Si  Si29  1  0.66570000  0.63960000  0.71990000  1
  Si  Si30  1  0.02610000  0.36040000  0.21990000  1
  Si  Si31  1  0.33430000  0.97390000  0.21990000  1
  Si  Si32  1  0.63960000  0.66570000  0.21990000  1
  Si  Si33  1  0.97390000  0.63960000  0.71990000  1
  Si  Si34  1  0.66570000  0.02610000  0.71990000  1
  Si  Si35  1  0.36040000  0.33430000  0.71990000  1
  Si  Si36  1  0.61370000  0.07870000  0.43350000  1
  Si  Si37  1  0.92130000  0.53500000  0.43350000  1
  Si  Si38  1  0.46500000  0.38630000  0.43350000  1
  Si  Si39  1  0.38630000  0.92130000  0.93350000  1
  Si  Si40  1  0.07870000  0.46500000  0.93350000  1
  Si  Si41  1  0.53500000  0.61370000  0.93350000  1
  Si  Si42  1  0.92130000  0.38630000  0.43350000  1
  Si  Si43  1  0.46500000  0.07870000  0.43350000  1
  Si  Si44  1  0.61370000  0.53500000  0.43350000  1
  Si  Si45  1  0.07870000  0.61370000  0.93350000  1
  Si  Si46  1  0.53500000  0.92130000  0.93350000  1
  Si  Si47  1  0.38630000  0.46500000  0.93350000  1
