# generated using pymatgen
data_SiO4
_symmetry_space_group_name_H-M   'P 1'
_cell_length_a   20.63400000
_cell_length_b   20.63400000
_cell_length_c   8.42600000
_cell_angle_alpha   90.00000000
_cell_angle_beta   90.00000000
_cell_angle_gamma   120.00000000
_symmetry_Int_Tables_number   1
_chemical_formula_structural   SiO4
_chemical_formula_sum   'Si1 O4'
_cell_volume   3106.84036425
_cell_formula_units_Z   1
loop_
 _symmetry_equiv_pos_site_id
 _symmetry_equiv_pos_as_xyz
  1  'x, y, z'
loop_
 _atom_site_type_symbol
 _atom_site_label
 _atom_site_symmetry_multiplicity
 _atom_site_fract_x
 _atom_site_fract_y
 _atom_site_fract_z
 _atom_site_occupancy
  Si  Si0  1  0.02610000  0.66570000  0.21990000  1
  O  O1  1  0.07500000  0.73450000  0.33830000  1
  O  O2  1  -0.03900000  0.67640000  0.14080000  1
  O  O3  1  0.07910000  0.66180000  0.08440000  1
  O  O4  1  -0.00990000  0.58890000  0.31950000  1
