# generated using pymatgen
data_Si
_symmetry_space_group_name_H-M   'P 1'
_cell_length_a   11.91900000
_cell_length_b   11.91900000
_cell_length_c   11.91900000
_cell_angle_alpha   90.00000000
_cell_angle_beta   90.00000000
_cell_angle_gamma   90.00000000
_symmetry_Int_Tables_number   1
_chemical_formula_structural   Si
_chemical_formula_sum   Si24
_cell_volume   1693.24366456
_cell_formula_units_Z   24
loop_
 _symmetry_equiv_pos_site_id
 _symmetry_equiv_pos_as_xyz
  1  'x, y, z'
loop_
 _atom_site_type_symbol
 _atom_site_label
 _atom_site_symmetry_multiplicity
 _atom_site_fract_x
 _atom_site_fract_y
 _atom_site_fract_z
 _atom_site_occupancy
  Si  Si0  1  0.00000000  0.18230000  0.36840000  1
  Si  Si1  1  0.36840000  0.00000000  0.18230000  1
  Si  Si2  1  0.18230000  0.36840000  0.00000000  1
  Si  Si3  1  0.00000000  0.18230000  0.63160000  1
  Si  Si4  1  0.36840000  0.00000000  0.81770000  1
  Si  Si5  1  0.63160000  0.00000000  0.18230000  1
  Si  Si6  1  0.81770000  0.36840000  0.00000000  1
  Si  Si7  1  0.63160000  0.00000000  0.81770000  1
  Si  Si8  1  0.18230000  0.00000000  0.36840000  1
  Si  Si9  1  0.00000000  0.36840000  0.18230000  1
  Si  Si10  1  0.36840000  0.18230000  0.00000000  1
  Si  Si11  1  0.18230000  0.00000000  0.63160000  1
  Si  Si12  1  0.00000000  0.36840000  0.81770000  1
  Si  Si13  1  0.00000000  0.63160000  0.18230000  1
  Si  Si14  1  0.36840000  0.81770000  0.00000000  1
  Si  Si15  1  0.00000000  0.63160000  0.81770000  1
  Si  Si16  1  0.00000000  0.81770000  0.63160000  1
  Si  Si17  1  0.81770000  0.63160000  0.00000000  1
  Si  Si18  1  0.00000000  0.81770000  0.36840000  1
  Si  Si19  1  0.18230000  0.63160000  0.00000000  1
  Si  Si20  1  0.81770000  0.00000000  0.63160000  1
  Si  Si21  1  0.63160000  0.81770000  0.00000000  1
  Si  Si22  1  0.81770000  0.00000000  0.36840000  1
  Si  Si23  1  0.63160000  0.18230000  0.00000000  1
