# generated using pymatgen
data_O2
_symmetry_space_group_name_H-M   'P 1'
_cell_length_a   13.58700000
_cell_length_b   13.58700000
_cell_length_c   7.55700000
_cell_angle_alpha   90.00000000
_cell_angle_beta   90.00000000
_cell_angle_gamma   120.00000000
_symmetry_Int_Tables_number   1
_chemical_formula_structural   O2
_chemical_formula_sum   O39
_cell_volume   1208.16765522
_cell_formula_units_Z   19
loop_
 _symmetry_equiv_pos_site_id
 _symmetry_equiv_pos_as_xyz
  1  'x, y, z'
loop_
 _atom_site_type_symbol
 _atom_site_label
 _atom_site_symmetry_multiplicity
 _atom_site_fract_x
 _atom_site_fract_y
 _atom_site_fract_z
 _atom_site_occupancy
  O  O0  1  0.29990000  0.14680000  0.00000000  1
  O  O1  1  0.85320000  0.15310000  0.00000000  1
  O  O2  1  0.84690000  0.70010000  0.00000000  1
  O  O3  1  0.14680000  0.29990000  0.00000000  1
  O  O4  1  0.15310000  0.85320000  0.00000000  1
  O  O5  1  0.70010000  0.84690000  0.00000000  1
  O  O6  1  0.36930000  0.21120000  0.32600000  1
  O  O7  1  0.78880000  0.15810000  0.32600000  1
  O  O8  1  0.84190000  0.63070000  0.32600000  1
  O  O9  1  0.36930000  0.21120000  0.67400000  1
  O  O10  1  0.78880000  0.15810000  0.67400000  1
  O  O11  1  0.84190000  0.63070000  0.67400000  1
  O  O12  1  0.21120000  0.36930000  0.67400000  1
  O  O13  1  0.15810000  0.78880000  0.67400000  1
  O  O14  1  0.63070000  0.84190000  0.67400000  1
  O  O15  1  0.21120000  0.36930000  0.32600000  1
  O  O16  1  0.15810000  0.78880000  0.32600000  1
  O  O17  1  0.63070000  0.84190000  0.32600000  1
  O  O18  1  0.21220000  0.00000000  0.26100000  1
  O  O19  1  0.00000000  0.21220000  0.26100000  1
  O  O20  1  0.78780000  0.78780000  0.26100000  1
  O  O21  1  0.21220000  0.00000000  0.73900000  1
  O  O22  1  0.00000000  0.21220000  0.73900000  1
  O  O23  1  0.78780000  0.78780000  0.73900000  1
  O  O24  1  0.16430000  0.16430000  0.23030000  1
  O  O25  1  0.83570000  0.00000000  0.23030000  1
  O  O26  1  0.00000000  0.83570000  0.23030000  1
  O  O27  1  0.16430000  0.16430000  0.76970000  1
  O  O28  1  0.83570000  0.00000000  0.76970000  1
  O  O29  1  0.00000000  0.83570000  0.76970000  1
  O  O30  1  0.38710000  0.38710000  0.50000000  1
  O  O31  1  0.61290000  0.00000000  0.50000000  1
  O  O32  1  0.00000000  0.61290000  0.50000000  1
  O  O33  1  0.55670000  0.34630000  0.50000000  1
  O  O34  1  0.65370000  0.21040000  0.50000000  1
  O  O35  1  0.78960000  0.44330000  0.50000000  1
  O  O36  1  0.34630000  0.55670000  0.50000000  1
  O  O37  1  0.21040000  0.65370000  0.50000000  1
  O  O38  1  0.44330000  0.78960000  0.50000000  1
