# generated using pymatgen
data_Si
_symmetry_space_group_name_H-M   'P 1'
_cell_length_a   13.58700000
_cell_length_b   13.58700000
_cell_length_c   7.55700000
_cell_angle_alpha   90.00000000
_cell_angle_beta   90.00000000
_cell_angle_gamma   120.00000000
_symmetry_Int_Tables_number   1
_chemical_formula_structural   Si
_chemical_formula_sum   Si20
_cell_volume   1208.16765522
_cell_formula_units_Z   20
loop_
 _symmetry_equiv_pos_site_id
 _symmetry_equiv_pos_as_xyz
  1  'x, y, z'
loop_
 _atom_site_type_symbol
 _atom_site_label
 _atom_site_symmetry_multiplicity
 _atom_site_fract_x
 _atom_site_fract_y
 _atom_site_fract_z
 _atom_site_occupancy
  Si  Si0  1  0.26130000  0.13060000  0.20430000  1
  Si  Si1  1  0.86940000  0.13070000  0.20430000  1
  Si  Si2  1  0.86930000  0.73870000  0.20430000  1
  Si  Si3  1  0.26130000  0.13060000  0.79570000  1
  Si  Si4  1  0.86940000  0.13070000  0.79570000  1
  Si  Si5  1  0.86930000  0.73870000  0.79570000  1
  Si  Si6  1  0.13060000  0.26130000  0.79570000  1
  Si  Si7  1  0.13070000  0.86940000  0.79570000  1
  Si  Si8  1  0.73870000  0.86930000  0.79570000  1
  Si  Si9  1  0.13060000  0.26130000  0.20430000  1
  Si  Si10  1  0.13070000  0.86940000  0.20430000  1
  Si  Si11  1  0.73870000  0.86930000  0.20430000  1
  Si  Si12  1  0.42040000  0.28890000  0.50000000  1
  Si  Si13  1  0.71110000  0.13150000  0.50000000  1
  Si  Si14  1  0.86850000  0.57960000  0.50000000  1
  Si  Si15  1  0.28890000  0.42040000  0.50000000  1
  Si  Si16  1  0.13150000  0.71110000  0.50000000  1
  Si  Si17  1  0.57960000  0.86850000  0.50000000  1
  Si  Si18  1  0.66666667  0.33333333  0.50000000  1
  Si  Si19  1  0.33333333  0.66666667  0.50000000  1
