# generated using pymatgen
data_SiO4
_symmetry_space_group_name_H-M   'P 1'
_cell_length_a   13.58700000
_cell_length_b   13.58700000
_cell_length_c   7.55700000
_cell_angle_alpha   90.00000000
_cell_angle_beta   90.00000000
_cell_angle_gamma   120.00000000
_symmetry_Int_Tables_number   1
_chemical_formula_structural   SiO4
_chemical_formula_sum   'Si1 O4'
_cell_volume   1208.16765522
_cell_formula_units_Z   1
loop_
 _symmetry_equiv_pos_site_id
 _symmetry_equiv_pos_as_xyz
  1  'x, y, z'
loop_
 _atom_site_type_symbol
 _atom_site_label
 _atom_site_symmetry_multiplicity
 _atom_site_fract_x
 _atom_site_fract_y
 _atom_site_fract_z
 _atom_site_occupancy
  Si  Si0  1  0.26130000  0.13060000  0.20430000  1
  O  O1  1  0.29990000  0.14680000  0.00000000  1
  O  O2  1  0.36930000  0.21120000  0.32600000  1
  O  O3  1  0.21220000  0.00000000  0.26100000  1
  O  O4  1  0.16430000  0.16430000  0.23030000  1
