# generated using pymatgen
data_O2
_symmetry_space_group_name_H-M   'P 1'
_cell_length_a   15.50100000
_cell_length_b   16.90200000
_cell_length_c   7.27300000
_cell_angle_alpha   90.00000000
_cell_angle_beta   96.07000000
_cell_angle_gamma   90.00000000
_symmetry_Int_Tables_number   1
_chemical_formula_structural   O2
_chemical_formula_sum   O72
_cell_volume   1894.82739536
_cell_formula_units_Z   36
loop_
 _symmetry_equiv_pos_site_id
 _symmetry_equiv_pos_as_xyz
  1  'x, y, z'
loop_
 _atom_site_type_symbol
 _atom_site_label
 _atom_site_symmetry_multiplicity
 _atom_site_fract_x
 _atom_site_fract_y
 _atom_site_fract_z
 _atom_site_occupancy
  O  O0  1  0.04490000  0.74110000  0.35700000  1
  O  O1  1  0.54490000  0.24110000  0.35700000  1
  O  O2  1  0.95510000  0.74110000  0.64300000  1
  O  O3  1  0.45510000  0.24110000  0.64300000  1
  O  O4  1  0.95510000  0.25890000  0.64300000  1
  O  O5  1  0.45510000  0.75890000  0.64300000  1
  O  O6  1  0.04490000  0.25890000  0.35700000  1
  O  O7  1  0.54490000  0.75890000  0.35700000  1
  O  O8  1  0.57270000  0.35150000  0.61100000  1
  O  O9  1  0.07270000  0.85150000  0.61100000  1
  O  O10  1  0.42730000  0.35150000  0.38900000  1
  O  O11  1  0.92730000  0.85150000  0.38900000  1
  O  O12  1  0.42730000  0.64850000  0.38900000  1
  O  O13  1  0.92730000  0.14850000  0.38900000  1
  O  O14  1  0.57270000  0.64850000  0.61100000  1
  O  O15  1  0.07270000  0.14850000  0.61100000  1
  O  O16  1  0.28170000  0.60510000  0.19170000  1
  O  O17  1  0.78170000  0.10510000  0.19170000  1
  O  O18  1  0.71830000  0.60510000  0.80830000  1
  O  O19  1  0.21830000  0.10510000  0.80830000  1
  O  O20  1  0.71830000  0.39490000  0.80830000  1
  O  O21  1  0.21830000  0.89490000  0.80830000  1
  O  O22  1  0.28170000  0.39490000  0.19170000  1
  O  O23  1  0.78170000  0.89490000  0.19170000  1
  O  O24  1  0.28380000  0.63260000  0.54810000  1
  O  O25  1  0.78380000  0.13260000  0.54810000  1
  O  O26  1  0.71620000  0.63260000  0.45190000  1
  O  O27  1  0.21620000  0.13260000  0.45190000  1
  O  O28  1  0.71620000  0.36740000  0.45190000  1
  O  O29  1  0.21620000  0.86740000  0.45190000  1
  O  O30  1  0.28380000  0.36740000  0.54810000  1
  O  O31  1  0.78380000  0.86740000  0.54810000  1
  O  O32  1  0.30130000  0.75030000  0.31790000  1
  O  O33  1  0.80130000  0.25030000  0.31790000  1
  O  O34  1  0.69870000  0.75030000  0.68210000  1
  O  O35  1  0.19870000  0.25030000  0.68210000  1
  O  O36  1  0.69870000  0.24970000  0.68210000  1
  O  O37  1  0.19870000  0.74970000  0.68210000  1
  O  O38  1  0.30130000  0.24970000  0.31790000  1
  O  O39  1  0.80130000  0.74970000  0.31790000  1
  O  O40  1  0.65450000  0.29890000  0.14080000  1
  O  O41  1  0.15450000  0.79890000  0.14080000  1
  O  O42  1  0.34550000  0.29890000  0.85920000  1
  O  O43  1  0.84550000  0.79890000  0.85920000  1
  O  O44  1  0.34550000  0.70110000  0.85920000  1
  O  O45  1  0.84550000  0.20110000  0.85920000  1
  O  O46  1  0.65450000  0.70110000  0.14080000  1
  O  O47  1  0.15450000  0.20110000  0.14080000  1
  O  O48  1  0.11760000  0.64720000  0.12860000  1
  O  O49  1  0.61760000  0.14720000  0.12860000  1
  O  O50  1  0.88240000  0.64720000  0.87140000  1
  O  O51  1  0.38240000  0.14720000  0.87140000  1
  O  O52  1  0.88240000  0.35280000  0.87140000  1
  O  O53  1  0.38240000  0.85280000  0.87140000  1
  O  O54  1  0.11760000  0.35280000  0.12860000  1
  O  O55  1  0.61760000  0.85280000  0.12860000  1
  O  O56  1  0.00000000  0.75160000  0.00000000  1
  O  O57  1  0.50000000  0.25160000  0.00000000  1
  O  O58  1  0.00000000  0.24840000  0.00000000  1
  O  O59  1  0.50000000  0.74840000  0.00000000  1
  O  O60  1  0.20640000  0.61180000  0.85080000  1
  O  O61  1  0.70640000  0.11180000  0.85080000  1
  O  O62  1  0.79360000  0.61180000  0.14920000  1
  O  O63  1  0.29360000  0.11180000  0.14920000  1
  O  O64  1  0.79360000  0.38820000  0.14920000  1
  O  O65  1  0.29360000  0.88820000  0.14920000  1
  O  O66  1  0.20640000  0.38820000  0.85080000  1
  O  O67  1  0.70640000  0.88820000  0.85080000  1
  O  O68  1  0.16340000  0.50000000  0.07530000  1
  O  O69  1  0.66340000  0.00000000  0.07530000  1
  O  O70  1  0.83660000  0.50000000  0.92470000  1
  O  O71  1  0.33660000  0.00000000  0.92470000  1
