# generated using pymatgen
data_Si
_symmetry_space_group_name_H-M   'P 1'
_cell_length_a   15.50100000
_cell_length_b   16.90200000
_cell_length_c   7.27300000
_cell_angle_alpha   90.00000000
_cell_angle_beta   96.07000000
_cell_angle_gamma   90.00000000
_symmetry_Int_Tables_number   1
_chemical_formula_structural   Si
_chemical_formula_sum   Si36
_cell_volume   1894.82739536
_cell_formula_units_Z   36
loop_
 _symmetry_equiv_pos_site_id
 _symmetry_equiv_pos_as_xyz
  1  'x, y, z'
loop_
 _atom_site_type_symbol
 _atom_site_label
 _atom_site_symmetry_multiplicity
 _atom_site_fract_x
 _atom_site_fract_y
 _atom_site_fract_z
 _atom_site_occupancy
  Si  Si0  1  0.80770000  0.40890000  0.93830000  1
  Si  Si1  1  0.30770000  0.90890000  0.93830000  1
  Si  Si2  1  0.19230000  0.40890000  0.06170000  1
  Si  Si3  1  0.69230000  0.90890000  0.06170000  1
  Si  Si4  1  0.19230000  0.59110000  0.06170000  1
  Si  Si5  1  0.69230000  0.09110000  0.06170000  1
  Si  Si6  1  0.80770000  0.59110000  0.93830000  1
  Si  Si7  1  0.30770000  0.09110000  0.93830000  1
  Si  Si8  1  0.07910000  0.73440000  0.15610000  1
  Si  Si9  1  0.57910000  0.23440000  0.15610000  1
  Si  Si10  1  0.92090000  0.73440000  0.84390000  1
  Si  Si11  1  0.42090000  0.23440000  0.84390000  1
  Si  Si12  1  0.92090000  0.26560000  0.84390000  1
  Si  Si13  1  0.42090000  0.76560000  0.84390000  1
  Si  Si14  1  0.07910000  0.26560000  0.15610000  1
  Si  Si15  1  0.57910000  0.76560000  0.15610000  1
  Si  Si16  1  0.32330000  0.65870000  0.36120000  1
  Si  Si17  1  0.82330000  0.15870000  0.36120000  1
  Si  Si18  1  0.67670000  0.65870000  0.63880000  1
  Si  Si19  1  0.17670000  0.15870000  0.63880000  1
  Si  Si20  1  0.67670000  0.34130000  0.63880000  1
  Si  Si21  1  0.17670000  0.84130000  0.63880000  1
  Si  Si22  1  0.32330000  0.34130000  0.36120000  1
  Si  Si23  1  0.82330000  0.84130000  0.36120000  1
  Si  Si24  1  0.25850000  0.67350000  0.73510000  1
  Si  Si25  1  0.75850000  0.17350000  0.73510000  1
  Si  Si26  1  0.74150000  0.67350000  0.26490000  1
  Si  Si27  1  0.24150000  0.17350000  0.26490000  1
  Si  Si28  1  0.74150000  0.32650000  0.26490000  1
  Si  Si29  1  0.24150000  0.82650000  0.26490000  1
  Si  Si30  1  0.25850000  0.32650000  0.73510000  1
  Si  Si31  1  0.75850000  0.82650000  0.73510000  1
  Si  Si32  1  0.00000000  0.79640000  0.50000000  1
  Si  Si33  1  0.50000000  0.29640000  0.50000000  1
  Si  Si34  1  0.00000000  0.20360000  0.50000000  1
  Si  Si35  1  0.50000000  0.70360000  0.50000000  1
