# generated using pymatgen
data_SiO4
_symmetry_space_group_name_H-M   'P 1'
_cell_length_a   15.50100000
_cell_length_b   16.90200000
_cell_length_c   7.27300000
_cell_angle_alpha   90.00000000
_cell_angle_beta   96.07000000
_cell_angle_gamma   90.00000000
_symmetry_Int_Tables_number   1
_chemical_formula_structural   SiO4
_chemical_formula_sum   'Si1 O4'
_cell_volume   1894.82739536
_cell_formula_units_Z   1
loop_
 _symmetry_equiv_pos_site_id
 _symmetry_equiv_pos_as_xyz
  1  'x, y, z'
loop_
 _atom_site_type_symbol
 _atom_site_label
 _atom_site_symmetry_multiplicity
 _atom_site_fract_x
 _atom_site_fract_y
 _atom_site_fract_z
 _atom_site_occupancy
  Si  Si0  1  0.80770000  0.59110000  0.93830000  1
  O  O1  1  0.71830000  0.60510000  0.80830000  1
  O  O2  1  0.88240000  0.64720000  0.87140000  1
  O  O3  1  0.79360000  0.61180000  1.14920000  1
  O  O4  1  0.83660000  0.50000000  0.92470000  1
