# generated using pymatgen
data_Si
_symmetry_space_group_name_H-M   'P 1'
_cell_length_a   26.31000000
_cell_length_b   26.31000000
_cell_length_c   26.31000000
_cell_angle_alpha   90.00000000
_cell_angle_beta   90.00000000
_cell_angle_gamma   90.00000000
_symmetry_Int_Tables_number   1
_chemical_formula_structural   Si
_chemical_formula_sum   Si192
_cell_volume   18212.20559100
_cell_formula_units_Z   192
loop_
 _symmetry_equiv_pos_site_id
 _symmetry_equiv_pos_as_xyz
  1  'x, y, z'
loop_
 _atom_site_type_symbol
 _atom_site_label
 _atom_site_symmetry_multiplicity
 _atom_site_fract_x
 _atom_site_fract_y
 _atom_site_fract_z
 _atom_site_occupancy
  Si  Si0  1  0.05020000  0.16580000  0.04800000  1
  Si  Si1  1  0.04800000  0.05020000  0.16580000  1
  Si  Si2  1  0.16580000  0.04800000  0.05020000  1
  Si  Si3  1  0.08420000  0.80020000  0.29800000  1
  Si  Si4  1  0.19980000  0.79800000  0.41580000  1
  Si  Si5  1  0.20200000  0.91580000  0.30020000  1
  Si  Si6  1  0.55020000  0.33420000  0.95200000  1
  Si  Si7  1  0.54800000  0.44980000  0.83420000  1
  Si  Si8  1  0.66580000  0.45200000  0.94980000  1
  Si  Si9  1  0.58420000  0.69980000  0.70200000  1
  Si  Si10  1  0.69980000  0.70200000  0.58420000  1
  Si  Si11  1  0.70200000  0.58420000  0.69980000  1
  Si  Si12  1  0.94980000  0.66580000  0.45200000  1
  Si  Si13  1  0.95200000  0.55020000  0.33420000  1
  Si  Si14  1  0.83420000  0.54800000  0.44980000  1
  Si  Si15  1  0.91580000  0.30020000  0.20200000  1
  Si  Si16  1  0.80020000  0.29800000  0.08420000  1
  Si  Si17  1  0.79800000  0.41580000  0.19980000  1
  Si  Si18  1  0.44980000  0.83420000  0.54800000  1
  Si  Si19  1  0.45200000  0.94980000  0.66580000  1
  Si  Si20  1  0.33420000  0.95200000  0.55020000  1
  Si  Si21  1  0.41580000  0.19980000  0.79800000  1
  Si  Si22  1  0.30020000  0.20200000  0.91580000  1
  Si  Si23  1  0.29800000  0.08420000  0.80020000  1
  Si  Si24  1  0.16790000  0.16330000  0.04970000  1
  Si  Si25  1  0.04970000  0.16790000  0.16330000  1
  Si  Si26  1  0.16330000  0.04970000  0.16790000  1
  Si  Si27  1  0.08670000  0.91790000  0.29970000  1
  Si  Si28  1  0.08210000  0.79970000  0.41330000  1
  Si  Si29  1  0.20030000  0.91330000  0.41790000  1
  Si  Si30  1  0.66790000  0.33670000  0.95030000  1
  Si  Si31  1  0.54970000  0.33210000  0.83670000  1
  Si  Si32  1  0.66330000  0.45030000  0.83210000  1
  Si  Si33  1  0.58670000  0.58210000  0.70030000  1
  Si  Si34  1  0.58210000  0.70030000  0.58670000  1
  Si  Si35  1  0.70030000  0.58670000  0.58210000  1
  Si  Si36  1  0.83210000  0.66330000  0.45030000  1
  Si  Si37  1  0.95030000  0.66790000  0.33670000  1
  Si  Si38  1  0.83670000  0.54970000  0.33210000  1
  Si  Si39  1  0.91330000  0.41790000  0.20030000  1
  Si  Si40  1  0.91790000  0.29970000  0.08670000  1
  Si  Si41  1  0.79970000  0.41330000  0.08210000  1
  Si  Si42  1  0.33210000  0.83670000  0.54970000  1
  Si  Si43  1  0.45030000  0.83210000  0.66330000  1
  Si  Si44  1  0.33670000  0.95030000  0.66790000  1
  Si  Si45  1  0.41330000  0.08210000  0.79970000  1
  Si  Si46  1  0.41790000  0.20030000  0.91330000  1
  Si  Si47  1  0.29970000  0.08670000  0.91790000  1
  Si  Si48  1  0.24900000  0.23940000  0.01050000  1
  Si  Si49  1  0.01050000  0.24900000  0.23940000  1
  Si  Si50  1  0.23940000  0.01050000  0.24900000  1
  Si  Si51  1  0.01060000  0.99900000  0.26050000  1
  Si  Si52  1  0.00100000  0.76050000  0.48940000  1
  Si  Si53  1  0.23950000  0.98940000  0.49900000  1
  Si  Si54  1  0.74900000  0.26060000  0.98950000  1
  Si  Si55  1  0.51050000  0.25100000  0.76060000  1
  Si  Si56  1  0.73940000  0.48950000  0.75100000  1
  Si  Si57  1  0.51060000  0.50100000  0.73950000  1
  Si  Si58  1  0.50100000  0.73950000  0.51060000  1
  Si  Si59  1  0.73950000  0.51060000  0.50100000  1
  Si  Si60  1  0.75100000  0.73940000  0.48950000  1
  Si  Si61  1  0.98950000  0.74900000  0.26060000  1
  Si  Si62  1  0.76060000  0.51050000  0.25100000  1
  Si  Si63  1  0.98940000  0.49900000  0.23950000  1
  Si  Si64  1  0.99900000  0.26050000  0.01060000  1
  Si  Si65  1  0.76050000  0.48940000  0.00100000  1
  Si  Si66  1  0.25100000  0.76060000  0.51050000  1
  Si  Si67  1  0.48950000  0.75100000  0.73940000  1
  Si  Si68  1  0.26060000  0.98950000  0.74900000  1
  Si  Si69  1  0.48940000  0.00100000  0.76050000  1
  Si  Si70  1  0.49900000  0.23950000  0.98940000  1
  Si  Si71  1  0.26050000  0.01060000  0.99900000  1
  Si  Si72  1  0.19730000  0.33060000  0.06410000  1
  Si  Si73  1  0.06410000  0.19730000  0.33060000  1
  Si  Si74  1  0.33060000  0.06410000  0.19730000  1
  Si  Si75  1  0.91940000  0.94730000  0.31410000  1
  Si  Si76  1  0.05270000  0.81410000  0.58060000  1
  Si  Si77  1  0.18590000  0.08060000  0.44730000  1
  Si  Si78  1  0.69730000  0.16940000  0.93590000  1
  Si  Si79  1  0.56410000  0.30270000  0.66940000  1
  Si  Si80  1  0.83060000  0.43590000  0.80270000  1
  Si  Si81  1  0.41940000  0.55270000  0.68590000  1
  Si  Si82  1  0.55270000  0.68590000  0.41940000  1
  Si  Si83  1  0.68590000  0.41940000  0.55270000  1
  Si  Si84  1  0.80270000  0.83060000  0.43590000  1
  Si  Si85  1  0.93590000  0.69730000  0.16940000  1
  Si  Si86  1  0.66940000  0.56410000  0.30270000  1
  Si  Si87  1  0.08060000  0.44730000  0.18590000  1
  Si  Si88  1  0.94730000  0.31410000  0.91940000  1
  Si  Si89  1  0.81410000  0.58060000  0.05270000  1
  Si  Si90  1  0.30270000  0.66940000  0.56410000  1
  Si  Si91  1  0.43590000  0.80270000  0.83060000  1
  Si  Si92  1  0.16940000  0.93590000  0.69730000  1
  Si  Si93  1  0.58060000  0.05270000  0.81410000  1
  Si  Si94  1  0.44730000  0.18590000  0.08060000  1
  Si  Si95  1  0.31410000  0.91940000  0.94730000  1
  Si  Si96  1  0.07870000  0.33050000  0.06690000  1
  Si  Si97  1  0.06690000  0.07870000  0.33050000  1
  Si  Si98  1  0.33050000  0.06690000  0.07870000  1
  Si  Si99  1  0.91950000  0.82870000  0.31690000  1
  Si  Si100  1  0.17130000  0.81690000  0.58050000  1
  Si  Si101  1  0.18310000  0.08050000  0.32870000  1
  Si  Si102  1  0.57870000  0.16950000  0.93310000  1
  Si  Si103  1  0.56690000  0.42130000  0.66950000  1
  Si  Si104  1  0.83050000  0.43310000  0.92130000  1
  Si  Si105  1  0.41950000  0.67130000  0.68310000  1
  Si  Si106  1  0.67130000  0.68310000  0.41950000  1
  Si  Si107  1  0.68310000  0.41950000  0.67130000  1
  Si  Si108  1  0.92130000  0.83050000  0.43310000  1
  Si  Si109  1  0.93310000  0.57870000  0.16950000  1
  Si  Si110  1  0.66950000  0.56690000  0.42130000  1
  Si  Si111  1  0.08050000  0.32870000  0.18310000  1
  Si  Si112  1  0.82870000  0.31690000  0.91950000  1
  Si  Si113  1  0.81690000  0.58050000  0.17130000  1
  Si  Si114  1  0.42130000  0.66950000  0.56690000  1
  Si  Si115  1  0.43310000  0.92130000  0.83050000  1
  Si  Si116  1  0.16950000  0.93310000  0.57870000  1
  Si  Si117  1  0.58050000  0.17130000  0.81690000  1
  Si  Si118  1  0.32870000  0.18310000  0.08050000  1
  Si  Si119  1  0.31690000  0.91950000  0.82870000  1
  Si  Si120  1  0.07960000  0.44870000  0.06900000  1
  Si  Si121  1  0.06900000  0.07960000  0.44870000  1
  Si  Si122  1  0.44870000  0.06900000  0.07960000  1
  Si  Si123  1  0.80130000  0.82960000  0.31900000  1
  Si  Si124  1  0.17040000  0.81900000  0.69870000  1
  Si  Si125  1  0.18100000  0.19870000  0.32960000  1
  Si  Si126  1  0.57960000  0.05130000  0.93100000  1
  Si  Si127  1  0.56900000  0.42040000  0.55130000  1
  Si  Si128  1  0.94870000  0.43100000  0.92040000  1
  Si  Si129  1  0.30130000  0.67040000  0.68100000  1
  Si  Si130  1  0.67040000  0.68100000  0.30130000  1
  Si  Si131  1  0.68100000  0.30130000  0.67040000  1
  Si  Si132  1  0.92040000  0.94870000  0.43100000  1
  Si  Si133  1  0.93100000  0.57960000  0.05130000  1
  Si  Si134  1  0.55130000  0.56900000  0.42040000  1
  Si  Si135  1  0.19870000  0.32960000  0.18100000  1
  Si  Si136  1  0.82960000  0.31900000  0.80130000  1
  Si  Si137  1  0.81900000  0.69870000  0.17040000  1
  Si  Si138  1  0.42040000  0.55130000  0.56900000  1
  Si  Si139  1  0.43100000  0.92040000  0.94870000  1
  Si  Si140  1  0.05130000  0.93100000  0.57960000  1
  Si  Si141  1  0.69870000  0.17040000  0.81900000  1
  Si  Si142  1  0.32960000  0.18100000  0.19870000  1
  Si  Si143  1  0.31900000  0.80130000  0.82960000  1
  Si  Si144  1  0.19730000  0.44820000  0.06620000  1
  Si  Si145  1  0.06620000  0.19730000  0.44820000  1
  Si  Si146  1  0.44820000  0.06620000  0.19730000  1
  Si  Si147  1  0.80180000  0.94730000  0.31620000  1
  Si  Si148  1  0.05270000  0.81620000  0.69820000  1
  Si  Si149  1  0.18380000  0.19820000  0.44730000  1
  Si  Si150  1  0.69730000  0.05180000  0.93380000  1
  Si  Si151  1  0.56620000  0.30270000  0.55180000  1
  Si  Si152  1  0.94820000  0.43380000  0.80270000  1
  Si  Si153  1  0.30180000  0.55270000  0.68380000  1
  Si  Si154  1  0.55270000  0.68380000  0.30180000  1
  Si  Si155  1  0.68380000  0.30180000  0.55270000  1
  Si  Si156  1  0.80270000  0.94820000  0.43380000  1
  Si  Si157  1  0.93380000  0.69730000  0.05180000  1
  Si  Si158  1  0.55180000  0.56620000  0.30270000  1
  Si  Si159  1  0.19820000  0.44730000  0.18380000  1
  Si  Si160  1  0.94730000  0.31620000  0.80180000  1
  Si  Si161  1  0.81620000  0.69820000  0.05270000  1
  Si  Si162  1  0.30270000  0.55180000  0.56620000  1
  Si  Si163  1  0.43380000  0.80270000  0.94820000  1
  Si  Si164  1  0.05180000  0.93380000  0.69730000  1
  Si  Si165  1  0.69820000  0.05270000  0.81620000  1
  Si  Si166  1  0.44730000  0.18380000  0.19820000  1
  Si  Si167  1  0.31620000  0.80180000  0.94730000  1
  Si  Si168  1  0.04900000  0.04900000  0.04900000  1
  Si  Si169  1  0.20100000  0.79900000  0.29900000  1
  Si  Si170  1  0.54900000  0.45100000  0.95100000  1
  Si  Si171  1  0.70100000  0.70100000  0.70100000  1
  Si  Si172  1  0.95100000  0.54900000  0.45100000  1
  Si  Si173  1  0.79900000  0.29900000  0.20100000  1
  Si  Si174  1  0.45100000  0.95100000  0.54900000  1
  Si  Si175  1  0.29900000  0.20100000  0.79900000  1
  Si  Si176  1  0.16570000  0.16570000  0.16570000  1
  Si  Si177  1  0.08430000  0.91570000  0.41570000  1
  Si  Si178  1  0.66570000  0.33430000  0.83430000  1
  Si  Si179  1  0.58430000  0.58430000  0.58430000  1
  Si  Si180  1  0.83430000  0.66570000  0.33430000  1
  Si  Si181  1  0.91570000  0.41570000  0.08430000  1
  Si  Si182  1  0.33430000  0.83430000  0.66570000  1
  Si  Si183  1  0.41570000  0.08430000  0.91570000  1
  Si  Si184  1  0.23620000  0.23620000  0.23620000  1
  Si  Si185  1  0.01380000  0.98620000  0.48620000  1
  Si  Si186  1  0.73620000  0.26380000  0.76380000  1
  Si  Si187  1  0.51380000  0.51380000  0.51380000  1
  Si  Si188  1  0.76380000  0.73620000  0.26380000  1
  Si  Si189  1  0.98620000  0.48620000  0.01380000  1
  Si  Si190  1  0.26380000  0.76380000  0.73620000  1
  Si  Si191  1  0.48620000  0.01380000  0.98620000  1
