# generated using pymatgen
data_O2
_symmetry_space_group_name_H-M   'P 1'
_cell_length_a   26.31000000
_cell_length_b   26.31000000
_cell_length_c   26.31000000
_cell_angle_alpha   90.00000000
_cell_angle_beta   90.00000000
_cell_angle_gamma   90.00000000
_symmetry_Int_Tables_number   1
_chemical_formula_structural   O2
_chemical_formula_sum   O400
_cell_volume   18212.20559100
_cell_formula_units_Z   200
loop_
 _symmetry_equiv_pos_site_id
 _symmetry_equiv_pos_as_xyz
  1  'x, y, z'
loop_
 _atom_site_type_symbol
 _atom_site_label
 _atom_site_symmetry_multiplicity
 _atom_site_fract_x
 _atom_site_fract_y
 _atom_site_fract_z
 _atom_site_occupancy
  O  O0  1  0.01880000  0.20260000  0.01050000  1
  O  O1  1  0.01050000  0.01880000  0.20260000  1
  O  O2  1  0.20260000  0.01050000  0.01880000  1
  O  O3  1  0.04740000  0.76880000  0.26050000  1
  O  O4  1  0.23120000  0.76050000  0.45260000  1
  O  O5  1  0.23950000  0.95260000  0.26880000  1
  O  O6  1  0.51880000  0.29740000  0.98950000  1
  O  O7  1  0.51050000  0.48120000  0.79740000  1
  O  O8  1  0.70260000  0.48950000  0.98120000  1
  O  O9  1  0.54740000  0.73120000  0.73950000  1
  O  O10  1  0.73120000  0.73950000  0.54740000  1
  O  O11  1  0.73950000  0.54740000  0.73120000  1
  O  O12  1  0.98120000  0.70260000  0.48950000  1
  O  O13  1  0.98950000  0.51880000  0.29740000  1
  O  O14  1  0.79740000  0.51050000  0.48120000  1
  O  O15  1  0.95260000  0.26880000  0.23950000  1
  O  O16  1  0.76880000  0.26050000  0.04740000  1
  O  O17  1  0.76050000  0.45260000  0.23120000  1
  O  O18  1  0.48120000  0.79740000  0.51050000  1
  O  O19  1  0.48950000  0.98120000  0.70260000  1
  O  O20  1  0.29740000  0.98950000  0.51880000  1
  O  O21  1  0.45260000  0.23120000  0.76050000  1
  O  O22  1  0.26880000  0.23950000  0.95260000  1
  O  O23  1  0.26050000  0.04740000  0.76880000  1
  O  O24  1  0.03040000  0.17340000  0.10550000  1
  O  O25  1  0.10550000  0.03040000  0.17340000  1
  O  O26  1  0.17340000  0.10550000  0.03040000  1
  O  O27  1  0.07660000  0.78040000  0.35550000  1
  O  O28  1  0.21960000  0.85550000  0.42340000  1
  O  O29  1  0.14450000  0.92340000  0.28040000  1
  O  O30  1  0.53040000  0.32660000  0.89450000  1
  O  O31  1  0.60550000  0.46960000  0.82660000  1
  O  O32  1  0.67340000  0.39450000  0.96960000  1
  O  O33  1  0.57660000  0.71960000  0.64450000  1
  O  O34  1  0.71960000  0.64450000  0.57660000  1
  O  O35  1  0.64450000  0.57660000  0.71960000  1
  O  O36  1  0.96960000  0.67340000  0.39450000  1
  O  O37  1  0.89450000  0.53040000  0.32660000  1
  O  O38  1  0.82660000  0.60550000  0.46960000  1
  O  O39  1  0.92340000  0.28040000  0.14450000  1
  O  O40  1  0.78040000  0.35550000  0.07660000  1
  O  O41  1  0.85550000  0.42340000  0.21960000  1
  O  O42  1  0.46960000  0.82660000  0.60550000  1
  O  O43  1  0.39450000  0.96960000  0.67340000  1
  O  O44  1  0.32660000  0.89450000  0.53040000  1
  O  O45  1  0.42340000  0.21960000  0.85550000  1
  O  O46  1  0.28040000  0.14450000  0.92340000  1
  O  O47  1  0.35550000  0.07660000  0.78040000  1
  O  O48  1  0.04300000  0.10730000  0.03160000  1
  O  O49  1  0.03160000  0.04300000  0.10730000  1
  O  O50  1  0.10730000  0.03160000  0.04300000  1
  O  O51  1  0.14270000  0.79300000  0.28160000  1
  O  O52  1  0.20700000  0.78160000  0.35730000  1
  O  O53  1  0.21840000  0.85730000  0.29300000  1
  O  O54  1  0.54300000  0.39270000  0.96840000  1
  O  O55  1  0.53160000  0.45700000  0.89270000  1
  O  O56  1  0.60730000  0.46840000  0.95700000  1
  O  O57  1  0.64270000  0.70700000  0.71840000  1
  O  O58  1  0.70700000  0.71840000  0.64270000  1
  O  O59  1  0.71840000  0.64270000  0.70700000  1
  O  O60  1  0.95700000  0.60730000  0.46840000  1
  O  O61  1  0.96840000  0.54300000  0.39270000  1
  O  O62  1  0.89270000  0.53160000  0.45700000  1
  O  O63  1  0.85730000  0.29300000  0.21840000  1
  O  O64  1  0.79300000  0.28160000  0.14270000  1
  O  O65  1  0.78160000  0.35730000  0.20700000  1
  O  O66  1  0.45700000  0.89270000  0.53160000  1
  O  O67  1  0.46840000  0.95700000  0.60730000  1
  O  O68  1  0.39270000  0.96840000  0.54300000  1
  O  O69  1  0.35730000  0.20700000  0.78160000  1
  O  O70  1  0.29300000  0.21840000  0.85730000  1
  O  O71  1  0.28160000  0.14270000  0.79300000  1
  O  O72  1  0.10950000  0.18080000  0.04530000  1
  O  O73  1  0.04530000  0.10950000  0.18080000  1
  O  O74  1  0.18080000  0.04530000  0.10950000  1
  O  O75  1  0.06920000  0.85950000  0.29530000  1
  O  O76  1  0.14050000  0.79530000  0.43080000  1
  O  O77  1  0.20470000  0.93080000  0.35950000  1
  O  O78  1  0.60950000  0.31920000  0.95470000  1
  O  O79  1  0.54530000  0.39050000  0.81920000  1
  O  O80  1  0.68080000  0.45470000  0.89050000  1
  O  O81  1  0.56920000  0.64050000  0.70470000  1
  O  O82  1  0.64050000  0.70470000  0.56920000  1
  O  O83  1  0.70470000  0.56920000  0.64050000  1
  O  O84  1  0.89050000  0.68080000  0.45470000  1
  O  O85  1  0.95470000  0.60950000  0.31920000  1
  O  O86  1  0.81920000  0.54530000  0.39050000  1
  O  O87  1  0.93080000  0.35950000  0.20470000  1
  O  O88  1  0.85950000  0.29530000  0.06920000  1
  O  O89  1  0.79530000  0.43080000  0.14050000  1
  O  O90  1  0.39050000  0.81920000  0.54530000  1
  O  O91  1  0.45470000  0.89050000  0.68080000  1
  O  O92  1  0.31920000  0.95470000  0.60950000  1
  O  O93  1  0.43080000  0.14050000  0.79530000  1
  O  O94  1  0.35950000  0.20470000  0.93080000  1
  O  O95  1  0.29530000  0.06920000  0.85950000  1
  O  O96  1  0.18610000  0.16730000  0.10800000  1
  O  O97  1  0.10800000  0.18610000  0.16730000  1
  O  O98  1  0.16730000  0.10800000  0.18610000  1
  O  O99  1  0.08270000  0.93610000  0.35800000  1
  O  O100  1  0.06390000  0.85800000  0.41730000  1
  O  O101  1  0.14200000  0.91730000  0.43610000  1
  O  O102  1  0.68610000  0.33270000  0.89200000  1
  O  O103  1  0.60800000  0.31390000  0.83270000  1
  O  O104  1  0.66730000  0.39200000  0.81390000  1
  O  O105  1  0.58270000  0.56390000  0.64200000  1
  O  O106  1  0.56390000  0.64200000  0.58270000  1
  O  O107  1  0.64200000  0.58270000  0.56390000  1
  O  O108  1  0.81390000  0.66730000  0.39200000  1
  O  O109  1  0.89200000  0.68610000  0.33270000  1
  O  O110  1  0.83270000  0.60800000  0.31390000  1
  O  O111  1  0.91730000  0.43610000  0.14200000  1
  O  O112  1  0.93610000  0.35800000  0.08270000  1
  O  O113  1  0.85800000  0.41730000  0.06390000  1
  O  O114  1  0.31390000  0.83270000  0.60800000  1
  O  O115  1  0.39200000  0.81390000  0.66730000  1
  O  O116  1  0.33270000  0.89200000  0.68610000  1
  O  O117  1  0.41730000  0.06390000  0.85800000  1
  O  O118  1  0.43610000  0.14200000  0.91730000  1
  O  O119  1  0.35800000  0.08270000  0.93610000  1
  O  O120  1  0.20230000  0.20010000  0.01490000  1
  O  O121  1  0.01490000  0.20230000  0.20010000  1
  O  O122  1  0.20010000  0.01490000  0.20230000  1
  O  O123  1  0.04990000  0.95230000  0.26490000  1
  O  O124  1  0.04770000  0.76490000  0.45010000  1
  O  O125  1  0.23510000  0.95010000  0.45230000  1
  O  O126  1  0.70230000  0.29990000  0.98510000  1
  O  O127  1  0.51490000  0.29770000  0.79990000  1
  O  O128  1  0.70010000  0.48510000  0.79770000  1
  O  O129  1  0.54990000  0.54770000  0.73510000  1
  O  O130  1  0.54770000  0.73510000  0.54990000  1
  O  O131  1  0.73510000  0.54990000  0.54770000  1
  O  O132  1  0.79770000  0.70010000  0.48510000  1
  O  O133  1  0.98510000  0.70230000  0.29990000  1
  O  O134  1  0.79990000  0.51490000  0.29770000  1
  O  O135  1  0.95010000  0.45230000  0.23510000  1
  O  O136  1  0.95230000  0.26490000  0.04990000  1
  O  O137  1  0.76490000  0.45010000  0.04770000  1
  O  O138  1  0.29770000  0.79990000  0.51490000  1
  O  O139  1  0.48510000  0.79770000  0.70010000  1
  O  O140  1  0.29990000  0.98510000  0.70230000  1
  O  O141  1  0.45010000  0.04770000  0.76490000  1
  O  O142  1  0.45230000  0.23510000  0.95010000  1
  O  O143  1  0.26490000  0.04990000  0.95230000  1
  O  O144  1  0.23050000  0.29540000  0.02670000  1
  O  O145  1  0.02670000  0.23050000  0.29540000  1
  O  O146  1  0.29540000  0.02670000  0.23050000  1
  O  O147  1  0.95460000  0.98050000  0.27670000  1
  O  O148  1  0.01950000  0.77670000  0.54540000  1
  O  O149  1  0.22330000  0.04540000  0.48050000  1
  O  O150  1  0.73050000  0.20460000  0.97330000  1
  O  O151  1  0.52670000  0.26950000  0.70460000  1
  O  O152  1  0.79540000  0.47330000  0.76950000  1
  O  O153  1  0.45460000  0.51950000  0.72330000  1
  O  O154  1  0.51950000  0.72330000  0.45460000  1
  O  O155  1  0.72330000  0.45460000  0.51950000  1
  O  O156  1  0.76950000  0.79540000  0.47330000  1
  O  O157  1  0.97330000  0.73050000  0.20460000  1
  O  O158  1  0.70460000  0.52670000  0.26950000  1
  O  O159  1  0.04540000  0.48050000  0.22330000  1
  O  O160  1  0.98050000  0.27670000  0.95460000  1
  O  O161  1  0.77670000  0.54540000  0.01950000  1
  O  O162  1  0.26950000  0.70460000  0.52670000  1
  O  O163  1  0.47330000  0.76950000  0.79540000  1
  O  O164  1  0.20460000  0.97330000  0.73050000  1
  O  O165  1  0.54540000  0.01950000  0.77670000  1
  O  O166  1  0.48050000  0.22330000  0.04540000  1
  O  O167  1  0.27670000  0.95460000  0.98050000  1
  O  O168  1  0.29430000  0.22120000  0.04740000  1
  O  O169  1  0.04740000  0.29430000  0.22120000  1
  O  O170  1  0.22120000  0.04740000  0.29430000  1
  O  O171  1  0.02880000  0.04430000  0.29740000  1
  O  O172  1  0.95570000  0.79740000  0.47120000  1
  O  O173  1  0.20260000  0.97120000  0.54430000  1
  O  O174  1  0.79430000  0.27880000  0.95260000  1
  O  O175  1  0.54740000  0.20570000  0.77880000  1
  O  O176  1  0.72120000  0.45260000  0.70570000  1
  O  O177  1  0.52880000  0.45570000  0.70260000  1
  O  O178  1  0.45570000  0.70260000  0.52880000  1
  O  O179  1  0.70260000  0.52880000  0.45570000  1
  O  O180  1  0.70570000  0.72120000  0.45260000  1
  O  O181  1  0.95260000  0.79430000  0.27880000  1
  O  O182  1  0.77880000  0.54740000  0.20570000  1
  O  O183  1  0.97120000  0.54430000  0.20260000  1
  O  O184  1  0.04430000  0.29740000  0.02880000  1
  O  O185  1  0.79740000  0.47120000  0.95570000  1
  O  O186  1  0.20570000  0.77880000  0.54740000  1
  O  O187  1  0.45260000  0.70570000  0.72120000  1
  O  O188  1  0.27880000  0.95260000  0.79430000  1
  O  O189  1  0.47120000  0.95570000  0.79740000  1
  O  O190  1  0.54430000  0.20260000  0.97120000  1
  O  O191  1  0.29740000  0.02880000  0.04430000  1
  O  O192  1  0.20900000  0.38960000  0.05300000  1
  O  O193  1  0.05300000  0.20900000  0.38960000  1
  O  O194  1  0.38960000  0.05300000  0.20900000  1
  O  O195  1  0.86040000  0.95900000  0.30300000  1
  O  O196  1  0.04100000  0.80300000  0.63960000  1
  O  O197  1  0.19700000  0.13960000  0.45900000  1
  O  O198  1  0.70900000  0.11040000  0.94700000  1
  O  O199  1  0.55300000  0.29100000  0.61040000  1
  O  O200  1  0.88960000  0.44700000  0.79100000  1
  O  O201  1  0.36040000  0.54100000  0.69700000  1
  O  O202  1  0.54100000  0.69700000  0.36040000  1
  O  O203  1  0.69700000  0.36040000  0.54100000  1
  O  O204  1  0.79100000  0.88960000  0.44700000  1
  O  O205  1  0.94700000  0.70900000  0.11040000  1
  O  O206  1  0.61040000  0.55300000  0.29100000  1
  O  O207  1  0.13960000  0.45900000  0.19700000  1
  O  O208  1  0.95900000  0.30300000  0.86040000  1
  O  O209  1  0.80300000  0.63960000  0.04100000  1
  O  O210  1  0.29100000  0.61040000  0.55300000  1
  O  O211  1  0.44700000  0.79100000  0.88960000  1
  O  O212  1  0.11040000  0.94700000  0.70900000  1
  O  O213  1  0.63960000  0.04100000  0.80300000  1
  O  O214  1  0.45900000  0.19700000  0.13960000  1
  O  O215  1  0.30300000  0.86040000  0.95900000  1
  O  O216  1  0.13780000  0.31940000  0.05530000  1
  O  O217  1  0.05530000  0.13780000  0.31940000  1
  O  O218  1  0.31940000  0.05530000  0.13780000  1
  O  O219  1  0.93060000  0.88780000  0.30530000  1
  O  O220  1  0.11220000  0.80530000  0.56940000  1
  O  O221  1  0.19470000  0.06940000  0.38780000  1
  O  O222  1  0.63780000  0.18060000  0.94470000  1
  O  O223  1  0.55530000  0.36220000  0.68060000  1
  O  O224  1  0.81940000  0.44470000  0.86220000  1
  O  O225  1  0.43060000  0.61220000  0.69470000  1
  O  O226  1  0.61220000  0.69470000  0.43060000  1
  O  O227  1  0.69470000  0.43060000  0.61220000  1
  O  O228  1  0.86220000  0.81940000  0.44470000  1
  O  O229  1  0.94470000  0.63780000  0.18060000  1
  O  O230  1  0.68060000  0.55530000  0.36220000  1
  O  O231  1  0.06940000  0.38780000  0.19470000  1
  O  O232  1  0.88780000  0.30530000  0.93060000  1
  O  O233  1  0.80530000  0.56940000  0.11220000  1
  O  O234  1  0.36220000  0.68060000  0.55530000  1
  O  O235  1  0.44470000  0.86220000  0.81940000  1
  O  O236  1  0.18060000  0.94470000  0.63780000  1
  O  O237  1  0.56940000  0.11220000  0.80530000  1
  O  O238  1  0.38780000  0.19470000  0.06940000  1
  O  O239  1  0.30530000  0.93060000  0.88780000  1
  O  O240  1  0.21170000  0.31830000  0.12230000  1
  O  O241  1  0.12230000  0.21170000  0.31830000  1
  O  O242  1  0.31830000  0.12230000  0.21170000  1
  O  O243  1  0.93170000  0.96170000  0.37230000  1
  O  O244  1  0.03830000  0.87230000  0.56830000  1
  O  O245  1  0.12770000  0.06830000  0.46170000  1
  O  O246  1  0.71170000  0.18170000  0.87770000  1
  O  O247  1  0.62230000  0.28830000  0.68170000  1
  O  O248  1  0.81830000  0.37770000  0.78830000  1
  O  O249  1  0.43170000  0.53830000  0.62770000  1
  O  O250  1  0.53830000  0.62770000  0.43170000  1
  O  O251  1  0.62770000  0.43170000  0.53830000  1
  O  O252  1  0.78830000  0.81830000  0.37770000  1
  O  O253  1  0.87770000  0.71170000  0.18170000  1
  O  O254  1  0.68170000  0.62230000  0.28830000  1
  O  O255  1  0.06830000  0.46170000  0.12770000  1
  O  O256  1  0.96170000  0.37230000  0.93170000  1
  O  O257  1  0.87230000  0.56830000  0.03830000  1
  O  O258  1  0.28830000  0.68170000  0.62230000  1
  O  O259  1  0.37770000  0.78830000  0.81830000  1
  O  O260  1  0.18170000  0.87770000  0.71170000  1
  O  O261  1  0.56830000  0.03830000  0.87230000  1
  O  O262  1  0.46170000  0.12770000  0.06830000  1
  O  O263  1  0.37230000  0.93170000  0.96170000  1
  O  O264  1  0.06600000  0.31600000  0.12500000  1
  O  O265  1  0.12500000  0.06600000  0.31600000  1
  O  O266  1  0.31600000  0.12500000  0.06600000  1
  O  O267  1  0.93400000  0.81600000  0.37500000  1
  O  O268  1  0.18400000  0.87500000  0.56600000  1
  O  O269  1  0.56600000  0.18400000  0.87500000  1
  O  O270  1  0.62500000  0.43400000  0.68400000  1
  O  O271  1  0.81600000  0.37500000  0.93400000  1
  O  O272  1  0.43400000  0.68400000  0.62500000  1
  O  O273  1  0.68400000  0.62500000  0.43400000  1
  O  O274  1  0.87500000  0.56600000  0.18400000  1
  O  O275  1  0.37500000  0.93400000  0.81600000  1
  O  O276  1  0.06710000  0.38990000  0.05800000  1
  O  O277  1  0.05800000  0.06710000  0.38990000  1
  O  O278  1  0.38990000  0.05800000  0.06710000  1
  O  O279  1  0.86010000  0.81710000  0.30800000  1
  O  O280  1  0.18290000  0.80800000  0.63990000  1
  O  O281  1  0.19200000  0.13990000  0.31710000  1
  O  O282  1  0.56710000  0.11010000  0.94200000  1
  O  O283  1  0.55800000  0.43290000  0.61010000  1
  O  O284  1  0.88990000  0.44200000  0.93290000  1
  O  O285  1  0.36010000  0.68290000  0.69200000  1
  O  O286  1  0.68290000  0.69200000  0.36010000  1
  O  O287  1  0.69200000  0.36010000  0.68290000  1
  O  O288  1  0.93290000  0.88990000  0.44200000  1
  O  O289  1  0.94200000  0.56710000  0.11010000  1
  O  O290  1  0.61010000  0.55800000  0.43290000  1
  O  O291  1  0.13990000  0.31710000  0.19200000  1
  O  O292  1  0.81710000  0.30800000  0.86010000  1
  O  O293  1  0.80800000  0.63990000  0.18290000  1
  O  O294  1  0.43290000  0.61010000  0.55800000  1
  O  O295  1  0.44200000  0.93290000  0.88990000  1
  O  O296  1  0.11010000  0.94200000  0.56710000  1
  O  O297  1  0.63990000  0.18290000  0.80800000  1
  O  O298  1  0.31710000  0.19200000  0.13990000  1
  O  O299  1  0.30800000  0.86010000  0.81710000  1
  O  O300  1  0.04410000  0.48380000  0.03360000  1
  O  O301  1  0.03360000  0.04410000  0.48380000  1
  O  O302  1  0.48380000  0.03360000  0.04410000  1
  O  O303  1  0.76620000  0.79410000  0.28360000  1
  O  O304  1  0.20590000  0.78360000  0.73380000  1
  O  O305  1  0.21640000  0.23380000  0.29410000  1
  O  O306  1  0.54410000  0.01620000  0.96640000  1
  O  O307  1  0.53360000  0.45590000  0.51620000  1
  O  O308  1  0.98380000  0.46640000  0.95590000  1
  O  O309  1  0.26620000  0.70590000  0.71640000  1
  O  O310  1  0.70590000  0.71640000  0.26620000  1
  O  O311  1  0.71640000  0.26620000  0.70590000  1
  O  O312  1  0.95590000  0.98380000  0.46640000  1
  O  O313  1  0.96640000  0.54410000  0.01620000  1
  O  O314  1  0.51620000  0.53360000  0.45590000  1
  O  O315  1  0.23380000  0.29410000  0.21640000  1
  O  O316  1  0.79410000  0.28360000  0.76620000  1
  O  O317  1  0.78360000  0.73380000  0.20590000  1
  O  O318  1  0.45590000  0.51620000  0.53360000  1
  O  O319  1  0.46640000  0.95590000  0.98380000  1
  O  O320  1  0.01620000  0.96640000  0.54410000  1
  O  O321  1  0.73380000  0.20590000  0.78360000  1
  O  O322  1  0.29410000  0.21640000  0.23380000  1
  O  O323  1  0.28360000  0.76620000  0.79410000  1
  O  O324  1  0.13820000  0.46020000  0.05560000  1
  O  O325  1  0.05560000  0.13820000  0.46020000  1
  O  O326  1  0.46020000  0.05560000  0.13820000  1
  O  O327  1  0.78980000  0.88820000  0.30560000  1
  O  O328  1  0.11180000  0.80560000  0.71020000  1
  O  O329  1  0.19440000  0.21020000  0.38820000  1
  O  O330  1  0.63820000  0.03980000  0.94440000  1
  O  O331  1  0.55560000  0.36180000  0.53980000  1
  O  O332  1  0.96020000  0.44440000  0.86180000  1
  O  O333  1  0.28980000  0.61180000  0.69440000  1
  O  O334  1  0.61180000  0.69440000  0.28980000  1
  O  O335  1  0.69440000  0.28980000  0.61180000  1
  O  O336  1  0.86180000  0.96020000  0.44440000  1
  O  O337  1  0.94440000  0.63820000  0.03980000  1
  O  O338  1  0.53980000  0.55560000  0.36180000  1
  O  O339  1  0.21020000  0.38820000  0.19440000  1
  O  O340  1  0.88820000  0.30560000  0.78980000  1
  O  O341  1  0.80560000  0.71020000  0.11180000  1
  O  O342  1  0.36180000  0.53980000  0.55560000  1
  O  O343  1  0.44440000  0.86180000  0.96020000  1
  O  O344  1  0.03980000  0.94440000  0.63820000  1
  O  O345  1  0.71020000  0.11180000  0.80560000  1
  O  O346  1  0.38820000  0.19440000  0.21020000  1
  O  O347  1  0.30560000  0.78980000  0.88820000  1
  O  O348  1  0.20970000  0.45970000  0.12500000  1
  O  O349  1  0.12500000  0.20970000  0.45970000  1
  O  O350  1  0.45970000  0.12500000  0.20970000  1
  O  O351  1  0.79030000  0.95970000  0.37500000  1
  O  O352  1  0.04030000  0.87500000  0.70970000  1
  O  O353  1  0.70970000  0.04030000  0.87500000  1
  O  O354  1  0.62500000  0.29030000  0.54030000  1
  O  O355  1  0.95970000  0.37500000  0.79030000  1
  O  O356  1  0.29030000  0.54030000  0.62500000  1
  O  O357  1  0.54030000  0.62500000  0.29030000  1
  O  O358  1  0.87500000  0.70970000  0.04030000  1
  O  O359  1  0.37500000  0.79030000  0.95970000  1
  O  O360  1  0.20100000  0.20100000  0.20100000  1
  O  O361  1  0.04900000  0.95100000  0.45100000  1
  O  O362  1  0.70100000  0.29900000  0.79900000  1
  O  O363  1  0.54900000  0.54900000  0.54900000  1
  O  O364  1  0.79900000  0.70100000  0.29900000  1
  O  O365  1  0.95100000  0.45100000  0.04900000  1
  O  O366  1  0.29900000  0.79900000  0.70100000  1
  O  O367  1  0.45100000  0.04900000  0.95100000  1
  O  O368  1  0.01100000  0.01100000  0.01100000  1
  O  O369  1  0.23900000  0.76100000  0.26100000  1
  O  O370  1  0.51100000  0.48900000  0.98900000  1
  O  O371  1  0.73900000  0.73900000  0.73900000  1
  O  O372  1  0.98900000  0.51100000  0.48900000  1
  O  O373  1  0.76100000  0.26100000  0.23900000  1
  O  O374  1  0.48900000  0.98900000  0.51100000  1
  O  O375  1  0.26100000  0.23900000  0.76100000  1
  O  O376  1  0.23440000  0.48700000  0.02820000  1
  O  O377  1  0.02820000  0.23440000  0.48700000  1
  O  O378  1  0.48700000  0.02820000  0.23440000  1
  O  O379  1  0.76300000  0.98440000  0.27820000  1
  O  O380  1  0.01560000  0.77820000  0.73700000  1
  O  O381  1  0.22180000  0.23700000  0.48440000  1
  O  O382  1  0.73440000  0.01300000  0.97180000  1
  O  O383  1  0.52820000  0.26560000  0.51300000  1
  O  O384  1  0.98700000  0.47180000  0.76560000  1
  O  O385  1  0.26300000  0.51560000  0.72180000  1
  O  O386  1  0.51560000  0.72180000  0.26300000  1
  O  O387  1  0.72180000  0.26300000  0.51560000  1
  O  O388  1  0.76560000  0.98700000  0.47180000  1
  O  O389  1  0.97180000  0.73440000  0.01300000  1
  O  O390  1  0.51300000  0.52820000  0.26560000  1
  O  O391  1  0.23700000  0.48440000  0.22180000  1
  O  O392  1  0.98440000  0.27820000  0.76300000  1
  O  O393  1  0.77820000  0.73700000  0.01560000  1
  O  O394  1  0.26560000  0.51300000  0.52820000  1
  O  O395  1  0.47180000  0.76560000  0.98700000  1
  O  O396  1  0.01300000  0.97180000  0.73440000  1
  O  O397  1  0.73700000  0.01560000  0.77820000  1
  O  O398  1  0.48440000  0.22180000  0.23700000  1
  O  O399  1  0.27820000  0.76300000  0.98440000  1
