# generated using pymatgen
data_SiO4
_symmetry_space_group_name_H-M   'P 1'
_cell_length_a   26.31000000
_cell_length_b   26.31000000
_cell_length_c   26.31000000
_cell_angle_alpha   90.00000000
_cell_angle_beta   90.00000000
_cell_angle_gamma   90.00000000
_symmetry_Int_Tables_number   1
_chemical_formula_structural   SiO4
_chemical_formula_sum   'Si1 O4'
_cell_volume   18212.20559100
_cell_formula_units_Z   1
loop_
 _symmetry_equiv_pos_site_id
 _symmetry_equiv_pos_as_xyz
  1  'x, y, z'
loop_
 _atom_site_type_symbol
 _atom_site_label
 _atom_site_symmetry_multiplicity
 _atom_site_fract_x
 _atom_site_fract_y
 _atom_site_fract_z
 _atom_site_occupancy
  Si  Si0  1  0.44820000  0.06620000  0.19730000  1
  O  O1  1  0.38960000  0.05300000  0.20900000  1
  O  O2  1  0.46020000  0.05560000  0.13820000  1
  O  O3  1  0.45970000  0.12500000  0.20970000  1
  O  O4  1  0.48700000  0.02820000  0.23440000  1
