# generated using pymatgen
data_SiO4
_symmetry_space_group_name_H-M   'P 1'
_cell_length_a   26.31000000
_cell_length_b   26.31000000
_cell_length_c   26.31000000
_cell_angle_alpha   90.00000000
_cell_angle_beta   90.00000000
_cell_angle_gamma   90.00000000
_symmetry_Int_Tables_number   1
_chemical_formula_structural   SiO4
_chemical_formula_sum   'Si1 O4'
_cell_volume   18212.20559100
_cell_formula_units_Z   1
loop_
 _symmetry_equiv_pos_site_id
 _symmetry_equiv_pos_as_xyz
  1  'x, y, z'
loop_
 _atom_site_type_symbol
 _atom_site_label
 _atom_site_symmetry_multiplicity
 _atom_site_fract_x
 _atom_site_fract_y
 _atom_site_fract_z
 _atom_site_occupancy
  Si  Si0  1  0.76050000  0.48940000  0.00100000  1
  O  O1  1  0.70260000  0.48950000  -0.01880000  1
  O  O2  1  0.76490000  0.45010000  0.04770000  1
  O  O3  1  0.77670000  0.54540000  0.01950000  1
  O  O4  1  0.79740000  0.47120000  -0.04430000  1
