# generated using pymatgen
data_SiO4
_symmetry_space_group_name_H-M   'P 1'
_cell_length_a   9.62900000
_cell_length_b   30.39400000
_cell_length_c   7.24900000
_cell_angle_alpha   90.00000000
_cell_angle_beta   90.45000000
_cell_angle_gamma   90.00000000
_symmetry_Int_Tables_number   1
_chemical_formula_structural   SiO4
_chemical_formula_sum   'Si1 O4'
_cell_volume   2121.45464200
_cell_formula_units_Z   1
loop_
 _symmetry_equiv_pos_site_id
 _symmetry_equiv_pos_as_xyz
  1  'x, y, z'
loop_
 _atom_site_type_symbol
 _atom_site_label
 _atom_site_symmetry_multiplicity
 _atom_site_fract_x
 _atom_site_fract_y
 _atom_site_fract_z
 _atom_site_occupancy
  Si  Si0  1  0.82330000  0.84280000  0.68770000  1
  O  O1  1  0.72770000  0.85590000  0.86030000  1
  O  O2  1  0.95280000  0.81390000  0.76010000  1
  O  O3  1  0.73270000  0.81440000  0.54290000  1
  O  O4  1  0.88100000  0.88650000  0.58910000  1
