# generated using pymatgen
data_SiO4
_symmetry_space_group_name_H-M   'P 1'
_cell_length_a   9.62900000
_cell_length_b   30.39400000
_cell_length_c   7.24900000
_cell_angle_alpha   90.00000000
_cell_angle_beta   90.45000000
_cell_angle_gamma   90.00000000
_symmetry_Int_Tables_number   1
_chemical_formula_structural   SiO4
_chemical_formula_sum   'Si1 O4'
_cell_volume   2121.45464200
_cell_formula_units_Z   1
loop_
 _symmetry_equiv_pos_site_id
 _symmetry_equiv_pos_as_xyz
  1  'x, y, z'
loop_
 _atom_site_type_symbol
 _atom_site_label
 _atom_site_symmetry_multiplicity
 _atom_site_fract_x
 _atom_site_fract_y
 _atom_site_fract_z
 _atom_site_occupancy
  Si  Si0  1  0.87800000  0.94970000  0.13220000  1
  O  O1  1  0.74200000  0.91960000  0.10560000  1
  O  O2  1  0.84150000  1.00000000  0.08070000  1
  O  O3  1  1.00000000  0.93240000  0.00000000  1
  O  O4  1  0.93080000  0.94740000  0.34320000  1
