# generated using pymatgen
data_SiO4
_symmetry_space_group_name_H-M   'P 1'
_cell_length_a   9.62900000
_cell_length_b   30.39400000
_cell_length_c   7.24900000
_cell_angle_alpha   90.00000000
_cell_angle_beta   90.45000000
_cell_angle_gamma   90.00000000
_symmetry_Int_Tables_number   1
_chemical_formula_structural   SiO4
_chemical_formula_sum   'Si1 O4'
_cell_volume   2121.45464200
_cell_formula_units_Z   1
loop_
 _symmetry_equiv_pos_site_id
 _symmetry_equiv_pos_as_xyz
  1  'x, y, z'
loop_
 _atom_site_type_symbol
 _atom_site_label
 _atom_site_symmetry_multiplicity
 _atom_site_fract_x
 _atom_site_fract_y
 _atom_site_fract_z
 _atom_site_occupancy
  Si  Si0  1  0.69180000  0.20150000  0.33790000  1
  O  O1  1  0.73270000  0.18560000  0.54290000  1
  O  O2  1  0.66490000  0.15950000  0.20770000  1
  O  O3  1  0.55290000  0.23100000  0.34500000  1
  O  O4  1  0.81530000  0.23110000  0.25510000  1
