# generated using pymatgen
data_O2
_symmetry_space_group_name_H-M   'P 1'
_cell_length_a   9.62900000
_cell_length_b   30.39400000
_cell_length_c   7.24900000
_cell_angle_alpha   90.00000000
_cell_angle_beta   90.45000000
_cell_angle_gamma   90.00000000
_symmetry_Int_Tables_number   1
_chemical_formula_structural   O2
_chemical_formula_sum   O88
_cell_volume   2121.45464200
_cell_formula_units_Z   44
loop_
 _symmetry_equiv_pos_site_id
 _symmetry_equiv_pos_as_xyz
  1  'x, y, z'
loop_
 _atom_site_type_symbol
 _atom_site_label
 _atom_site_symmetry_multiplicity
 _atom_site_fract_x
 _atom_site_fract_y
 _atom_site_fract_z
 _atom_site_occupancy
  O  O0  1  0.27230000  0.14410000  0.13970000  1
  O  O1  1  0.77230000  0.64410000  0.13970000  1
  O  O2  1  0.72770000  0.14410000  0.86030000  1
  O  O3  1  0.22770000  0.64410000  0.86030000  1
  O  O4  1  0.72770000  0.85590000  0.86030000  1
  O  O5  1  0.22770000  0.35590000  0.86030000  1
  O  O6  1  0.27230000  0.85590000  0.13970000  1
  O  O7  1  0.77230000  0.35590000  0.13970000  1
  O  O8  1  0.04720000  0.18610000  0.23990000  1
  O  O9  1  0.54720000  0.68610000  0.23990000  1
  O  O10  1  0.95280000  0.18610000  0.76010000  1
  O  O11  1  0.45280000  0.68610000  0.76010000  1
  O  O12  1  0.95280000  0.81390000  0.76010000  1
  O  O13  1  0.45280000  0.31390000  0.76010000  1
  O  O14  1  0.04720000  0.81390000  0.23990000  1
  O  O15  1  0.54720000  0.31390000  0.23990000  1
  O  O16  1  0.26730000  0.18560000  0.45710000  1
  O  O17  1  0.76730000  0.68560000  0.45710000  1
  O  O18  1  0.73270000  0.18560000  0.54290000  1
  O  O19  1  0.23270000  0.68560000  0.54290000  1
  O  O20  1  0.73270000  0.81440000  0.54290000  1
  O  O21  1  0.23270000  0.31440000  0.54290000  1
  O  O22  1  0.26730000  0.81440000  0.45710000  1
  O  O23  1  0.76730000  0.31440000  0.45710000  1
  O  O24  1  0.11900000  0.11350000  0.41090000  1
  O  O25  1  0.61900000  0.61350000  0.41090000  1
  O  O26  1  0.88100000  0.11350000  0.58910000  1
  O  O27  1  0.38100000  0.61350000  0.58910000  1
  O  O28  1  0.88100000  0.88650000  0.58910000  1
  O  O29  1  0.38100000  0.38650000  0.58910000  1
  O  O30  1  0.11900000  0.88650000  0.41090000  1
  O  O31  1  0.61900000  0.38650000  0.41090000  1
  O  O32  1  0.00000000  0.38900000  0.00000000  1
  O  O33  1  0.50000000  0.88900000  0.00000000  1
  O  O34  1  0.00000000  0.61100000  0.00000000  1
  O  O35  1  0.50000000  0.11100000  0.00000000  1
  O  O36  1  0.16490000  0.34050000  0.20770000  1
  O  O37  1  0.66490000  0.84050000  0.20770000  1
  O  O38  1  0.83510000  0.34050000  0.79230000  1
  O  O39  1  0.33510000  0.84050000  0.79230000  1
  O  O40  1  0.83510000  0.65950000  0.79230000  1
  O  O41  1  0.33510000  0.15950000  0.79230000  1
  O  O42  1  0.16490000  0.65950000  0.20770000  1
  O  O43  1  0.66490000  0.15950000  0.20770000  1
  O  O44  1  0.24200000  0.41960000  0.10560000  1
  O  O45  1  0.74200000  0.91960000  0.10560000  1
  O  O46  1  0.75800000  0.41960000  0.89440000  1
  O  O47  1  0.25800000  0.91960000  0.89440000  1
  O  O48  1  0.75800000  0.58040000  0.89440000  1
  O  O49  1  0.25800000  0.08040000  0.89440000  1
  O  O50  1  0.24200000  0.58040000  0.10560000  1
  O  O51  1  0.74200000  0.08040000  0.10560000  1
  O  O52  1  0.15850000  0.00000000  0.91930000  1
  O  O53  1  0.65850000  0.50000000  0.91930000  1
  O  O54  1  0.84150000  0.00000000  0.08070000  1
  O  O55  1  0.34150000  0.50000000  0.08070000  1
  O  O56  1  0.00000000  0.06760000  0.00000000  1
  O  O57  1  0.50000000  0.56760000  0.00000000  1
  O  O58  1  0.00000000  0.93240000  0.00000000  1
  O  O59  1  0.50000000  0.43240000  0.00000000  1
  O  O60  1  0.06920000  0.05260000  0.65680000  1
  O  O61  1  0.56920000  0.55260000  0.65680000  1
  O  O62  1  0.93080000  0.05260000  0.34320000  1
  O  O63  1  0.43080000  0.55260000  0.34320000  1
  O  O64  1  0.93080000  0.94740000  0.34320000  1
  O  O65  1  0.43080000  0.44740000  0.34320000  1
  O  O66  1  0.06920000  0.94740000  0.65680000  1
  O  O67  1  0.56920000  0.44740000  0.65680000  1
  O  O68  1  0.05290000  0.26900000  0.34500000  1
  O  O69  1  0.55290000  0.76900000  0.34500000  1
  O  O70  1  0.94710000  0.26900000  0.65500000  1
  O  O71  1  0.44710000  0.76900000  0.65500000  1
  O  O72  1  0.94710000  0.73100000  0.65500000  1
  O  O73  1  0.44710000  0.23100000  0.65500000  1
  O  O74  1  0.05290000  0.73100000  0.34500000  1
  O  O75  1  0.55290000  0.23100000  0.34500000  1
  O  O76  1  0.31530000  0.26890000  0.25510000  1
  O  O77  1  0.81530000  0.76890000  0.25510000  1
  O  O78  1  0.68470000  0.26890000  0.74490000  1
  O  O79  1  0.18470000  0.76890000  0.74490000  1
  O  O80  1  0.68470000  0.73110000  0.74490000  1
  O  O81  1  0.18470000  0.23110000  0.74490000  1
  O  O82  1  0.31530000  0.73110000  0.25510000  1
  O  O83  1  0.81530000  0.23110000  0.25510000  1
  O  O84  1  0.00000000  0.24920000  0.00000000  1
  O  O85  1  0.50000000  0.74920000  0.00000000  1
  O  O86  1  0.00000000  0.75080000  0.00000000  1
  O  O87  1  0.50000000  0.25080000  0.00000000  1
