# generated using pymatgen
data_Si
_symmetry_space_group_name_H-M   'P 1'
_cell_length_a   9.62900000
_cell_length_b   30.39400000
_cell_length_c   7.24900000
_cell_angle_alpha   90.00000000
_cell_angle_beta   90.45000000
_cell_angle_gamma   90.00000000
_symmetry_Int_Tables_number   1
_chemical_formula_structural   Si
_chemical_formula_sum   Si44
_cell_volume   2121.45464200
_cell_formula_units_Z   44
loop_
 _symmetry_equiv_pos_site_id
 _symmetry_equiv_pos_as_xyz
  1  'x, y, z'
loop_
 _atom_site_type_symbol
 _atom_site_label
 _atom_site_symmetry_multiplicity
 _atom_site_fract_x
 _atom_site_fract_y
 _atom_site_fract_z
 _atom_site_occupancy
  Si  Si0  1  0.12200000  0.05030000  0.86780000  1
  Si  Si1  1  0.62200000  0.55030000  0.86780000  1
  Si  Si2  1  0.87800000  0.05030000  0.13220000  1
  Si  Si3  1  0.37800000  0.55030000  0.13220000  1
  Si  Si4  1  0.87800000  0.94970000  0.13220000  1
  Si  Si5  1  0.37800000  0.44970000  0.13220000  1
  Si  Si6  1  0.12200000  0.94970000  0.86780000  1
  Si  Si7  1  0.62200000  0.44970000  0.86780000  1
  Si  Si8  1  0.17670000  0.15720000  0.31230000  1
  Si  Si9  1  0.67670000  0.65720000  0.31230000  1
  Si  Si10  1  0.82330000  0.15720000  0.68770000  1
  Si  Si11  1  0.32330000  0.65720000  0.68770000  1
  Si  Si12  1  0.82330000  0.84280000  0.68770000  1
  Si  Si13  1  0.32330000  0.34280000  0.68770000  1
  Si  Si14  1  0.17670000  0.84280000  0.31230000  1
  Si  Si15  1  0.67670000  0.34280000  0.31230000  1
  Si  Si16  1  0.15900000  0.37600000  0.04330000  1
  Si  Si17  1  0.65900000  0.87600000  0.04330000  1
  Si  Si18  1  0.84100000  0.37600000  0.95670000  1
  Si  Si19  1  0.34100000  0.87600000  0.95670000  1
  Si  Si20  1  0.84100000  0.62400000  0.95670000  1
  Si  Si21  1  0.34100000  0.12400000  0.95670000  1
  Si  Si22  1  0.15900000  0.62400000  0.04330000  1
  Si  Si23  1  0.65900000  0.12400000  0.04330000  1
  Si  Si24  1  0.19180000  0.29850000  0.33790000  1
  Si  Si25  1  0.69180000  0.79850000  0.33790000  1
  Si  Si26  1  0.80820000  0.29850000  0.66210000  1
  Si  Si27  1  0.30820000  0.79850000  0.66210000  1
  Si  Si28  1  0.80820000  0.70150000  0.66210000  1
  Si  Si29  1  0.30820000  0.20150000  0.66210000  1
  Si  Si30  1  0.19180000  0.70150000  0.33790000  1
  Si  Si31  1  0.69180000  0.20150000  0.33790000  1
  Si  Si32  1  0.97850000  0.23390000  0.21040000  1
  Si  Si33  1  0.47850000  0.73390000  0.21040000  1
  Si  Si34  1  0.02150000  0.23390000  0.78960000  1
  Si  Si35  1  0.52150000  0.73390000  0.78960000  1
  Si  Si36  1  0.02150000  0.76610000  0.78960000  1
  Si  Si37  1  0.52150000  0.26610000  0.78960000  1
  Si  Si38  1  0.97850000  0.76610000  0.21040000  1
  Si  Si39  1  0.47850000  0.26610000  0.21040000  1
  Si  Si40  1  0.00000000  0.08330000  0.50000000  1
  Si  Si41  1  0.50000000  0.58330000  0.50000000  1
  Si  Si42  1  0.00000000  0.91670000  0.50000000  1
  Si  Si43  1  0.50000000  0.41670000  0.50000000  1
