# generated using pymatgen
data_Si
_symmetry_space_group_name_H-M   'P 1'
_cell_length_a   13.85000000
_cell_length_b   13.85000000
_cell_length_c   6.42000000
_cell_angle_alpha   90.00000000
_cell_angle_beta   90.00000000
_cell_angle_gamma   90.00000000
_symmetry_Int_Tables_number   1
_chemical_formula_structural   Si
_chemical_formula_sum   Si20
_cell_volume   1231.50045000
_cell_formula_units_Z   20
loop_
 _symmetry_equiv_pos_site_id
 _symmetry_equiv_pos_as_xyz
  1  'x, y, z'
loop_
 _atom_site_type_symbol
 _atom_site_label
 _atom_site_symmetry_multiplicity
 _atom_site_fract_x
 _atom_site_fract_y
 _atom_site_fract_z
 _atom_site_occupancy
  Si  Si0  1  0.00000000  0.11600000  0.99380000  1
  Si  Si1  1  0.50000000  0.61600000  0.49380000  1
  Si  Si2  1  0.63400000  0.25000000  0.74380000  1
  Si  Si3  1  0.13400000  0.75000000  0.24380000  1
  Si  Si4  1  0.50000000  0.88400000  0.49380000  1
  Si  Si5  1  0.00000000  0.38400000  0.99380000  1
  Si  Si6  1  0.86600000  0.75000000  0.24380000  1
  Si  Si7  1  0.36600000  0.25000000  0.74380000  1
  Si  Si8  1  0.00000000  0.88400000  0.00620000  1
  Si  Si9  1  0.50000000  0.38400000  0.50620000  1
  Si  Si10  1  0.36600000  0.75000000  0.25620000  1
  Si  Si11  1  0.86600000  0.25000000  0.75620000  1
  Si  Si12  1  0.50000000  0.11600000  0.50620000  1
  Si  Si13  1  0.00000000  0.61600000  0.00620000  1
  Si  Si14  1  0.13400000  0.25000000  0.75620000  1
  Si  Si15  1  0.63400000  0.75000000  0.25620000  1
  Si  Si16  1  0.00000000  0.25000000  0.37500000  1
  Si  Si17  1  0.50000000  0.75000000  0.87500000  1
  Si  Si18  1  0.50000000  0.25000000  0.12500000  1
  Si  Si19  1  0.00000000  0.75000000  0.62500000  1
