# generated using pymatgen
data_SiO4
_symmetry_space_group_name_H-M   'P 1'
_cell_length_a   13.12310000
_cell_length_b   13.37340000
_cell_length_c   21.26198000
_cell_angle_alpha   90.00000000
_cell_angle_beta   123.64200000
_cell_angle_gamma   90.00000000
_symmetry_Int_Tables_number   1
_chemical_formula_structural   SiO4
_chemical_formula_sum   'Si1 O4'
_cell_volume   3106.52056555
_cell_formula_units_Z   1
loop_
 _symmetry_equiv_pos_site_id
 _symmetry_equiv_pos_as_xyz
  1  'x, y, z'
loop_
 _atom_site_type_symbol
 _atom_site_label
 _atom_site_symmetry_multiplicity
 _atom_site_fract_x
 _atom_site_fract_y
 _atom_site_fract_z
 _atom_site_occupancy
  Si  Si0  1  0.92451000  0.11507000  0.56875000  1
  O  O1  1  0.87382000  0.18303000  0.60823000  1
  O  O2  1  0.83471000  0.12589000  0.47840000  1
  O  O3  1  1.06021000  0.15071000  0.59588000  1
  O  O4  1  0.92865000  0.00000000  0.59231000  1
