# generated using pymatgen
data_SiO4
_symmetry_space_group_name_H-M   'P 1'
_cell_length_a   13.12310000
_cell_length_b   13.37340000
_cell_length_c   21.26198000
_cell_angle_alpha   90.00000000
_cell_angle_beta   123.64200000
_cell_angle_gamma   90.00000000
_symmetry_Int_Tables_number   1
_chemical_formula_structural   SiO4
_chemical_formula_sum   'Si1 O4'
_cell_volume   3106.52056555
_cell_formula_units_Z   1
loop_
 _symmetry_equiv_pos_site_id
 _symmetry_equiv_pos_as_xyz
  1  'x, y, z'
loop_
 _atom_site_type_symbol
 _atom_site_label
 _atom_site_symmetry_multiplicity
 _atom_site_fract_x
 _atom_site_fract_y
 _atom_site_fract_z
 _atom_site_occupancy
  Si  Si0  1  0.39204000  0.61497000  0.79526000  1
  O  O1  1  0.44650000  0.66879000  0.87552000  1
  O  O2  1  0.24484000  0.61991000  0.74783000  1
  O  O3  1  0.43559000  0.50000000  0.80881000  1
  O  O4  1  0.44060000  0.67093000  0.74967000  1
