# generated using pymatgen
data_Si
_symmetry_space_group_name_H-M   'P 1'
_cell_length_a   13.12310000
_cell_length_b   13.37340000
_cell_length_c   21.26198000
_cell_angle_alpha   90.00000000
_cell_angle_beta   123.64200000
_cell_angle_gamma   90.00000000
_symmetry_Int_Tables_number   1
_chemical_formula_structural   Si
_chemical_formula_sum   Si56
_cell_volume   3106.52056555
_cell_formula_units_Z   56
loop_
 _symmetry_equiv_pos_site_id
 _symmetry_equiv_pos_as_xyz
  1  'x, y, z'
loop_
 _atom_site_type_symbol
 _atom_site_label
 _atom_site_symmetry_multiplicity
 _atom_site_fract_x
 _atom_site_fract_y
 _atom_site_fract_z
 _atom_site_occupancy
  Si  Si0  1  0.44602000  0.27800000  0.04824000  1
  Si  Si1  1  0.44602000  0.72200000  0.04824000  1
  Si  Si2  1  0.55398000  0.72200000  0.95176000  1
  Si  Si3  1  0.55398000  0.27800000  0.95176000  1
  Si  Si4  1  0.94602000  0.77800000  0.04824000  1
  Si  Si5  1  0.94602000  0.22200000  0.04824000  1
  Si  Si6  1  0.05398000  0.22200000  0.95176000  1
  Si  Si7  1  0.05398000  0.77800000  0.95176000  1
  Si  Si8  1  0.29726000  0.11716000  0.07319000  1
  Si  Si9  1  0.29726000  0.88284000  0.07319000  1
  Si  Si10  1  0.70274000  0.88284000  0.92681000  1
  Si  Si11  1  0.70274000  0.11716000  0.92681000  1
  Si  Si12  1  0.79726000  0.61716000  0.07319000  1
  Si  Si13  1  0.79726000  0.38284000  0.07319000  1
  Si  Si14  1  0.20274000  0.38284000  0.92681000  1
  Si  Si15  1  0.20274000  0.61716000  0.92681000  1
  Si  Si16  1  0.10796000  0.11497000  0.20474000  1
  Si  Si17  1  0.10796000  0.88503000  0.20474000  1
  Si  Si18  1  0.89204000  0.88503000  0.79526000  1
  Si  Si19  1  0.89204000  0.11497000  0.79526000  1
  Si  Si20  1  0.60796000  0.61497000  0.20474000  1
  Si  Si21  1  0.60796000  0.38503000  0.20474000  1
  Si  Si22  1  0.39204000  0.38503000  0.79526000  1
  Si  Si23  1  0.39204000  0.61497000  0.79526000  1
  Si  Si24  1  0.36084000  0.11342000  0.23562000  1
  Si  Si25  1  0.36084000  0.88658000  0.23562000  1
  Si  Si26  1  0.63916000  0.88658000  0.76438000  1
  Si  Si27  1  0.63916000  0.11342000  0.76438000  1
  Si  Si28  1  0.86084000  0.61342000  0.23562000  1
  Si  Si29  1  0.86084000  0.38658000  0.23562000  1
  Si  Si30  1  0.13916000  0.38658000  0.76438000  1
  Si  Si31  1  0.13916000  0.61342000  0.76438000  1
  Si  Si32  1  0.09048000  0.24628000  0.31780000  1
  Si  Si33  1  0.09048000  0.75372000  0.31780000  1
  Si  Si34  1  0.90952000  0.75372000  0.68220000  1
  Si  Si35  1  0.90952000  0.24628000  0.68220000  1
  Si  Si36  1  0.59048000  0.74628000  0.31780000  1
  Si  Si37  1  0.59048000  0.25372000  0.31780000  1
  Si  Si38  1  0.40952000  0.25372000  0.68220000  1
  Si  Si39  1  0.40952000  0.74628000  0.68220000  1
  Si  Si40  1  0.31696000  0.38493000  0.39748000  1
  Si  Si41  1  0.31696000  0.61507000  0.39748000  1
  Si  Si42  1  0.68304000  0.61507000  0.60252000  1
  Si  Si43  1  0.68304000  0.38493000  0.60252000  1
  Si  Si44  1  0.81696000  0.88493000  0.39748000  1
  Si  Si45  1  0.81696000  0.11507000  0.39748000  1
  Si  Si46  1  0.18304000  0.11507000  0.60252000  1
  Si  Si47  1  0.18304000  0.88493000  0.60252000  1
  Si  Si48  1  0.07549000  0.11507000  0.43125000  1
  Si  Si49  1  0.07549000  0.88493000  0.43125000  1
  Si  Si50  1  0.92451000  0.88493000  0.56875000  1
  Si  Si51  1  0.92451000  0.11507000  0.56875000  1
  Si  Si52  1  0.57549000  0.61507000  0.43125000  1
  Si  Si53  1  0.57549000  0.38493000  0.43125000  1
  Si  Si54  1  0.42451000  0.38493000  0.56875000  1
  Si  Si55  1  0.42451000  0.61507000  0.56875000  1
