# generated using pymatgen
data_O2
_symmetry_space_group_name_H-M   'P 1'
_cell_length_a   13.12310000
_cell_length_b   13.37340000
_cell_length_c   21.26198000
_cell_angle_alpha   90.00000000
_cell_angle_beta   123.64200000
_cell_angle_gamma   90.00000000
_symmetry_Int_Tables_number   1
_chemical_formula_structural   O2
_chemical_formula_sum   O112
_cell_volume   3106.52056555
_cell_formula_units_Z   56
loop_
 _symmetry_equiv_pos_site_id
 _symmetry_equiv_pos_as_xyz
  1  'x, y, z'
loop_
 _atom_site_type_symbol
 _atom_site_label
 _atom_site_symmetry_multiplicity
 _atom_site_fract_x
 _atom_site_fract_y
 _atom_site_fract_z
 _atom_site_occupancy
  O  O0  1  0.55350000  0.33121000  0.12448000  1
  O  O1  1  0.55350000  0.66879000  0.12448000  1
  O  O2  1  0.44650000  0.66879000  0.87552000  1
  O  O3  1  0.44650000  0.33121000  0.87552000  1
  O  O4  1  0.05350000  0.83121000  0.12448000  1
  O  O5  1  0.05350000  0.16879000  0.12448000  1
  O  O6  1  0.94650000  0.16879000  0.87552000  1
  O  O7  1  0.94650000  0.83121000  0.87552000  1
  O  O8  1  0.50000000  0.24188000  0.00000000  1
  O  O9  1  0.50000000  0.75812000  0.00000000  1
  O  O10  1  0.00000000  0.74188000  0.00000000  1
  O  O11  1  0.00000000  0.25812000  0.00000000  1
  O  O12  1  0.33673000  0.35659000  0.99941000  1
  O  O13  1  0.33673000  0.64341000  0.99941000  1
  O  O14  1  0.66327000  0.64341000  0.00059000  1
  O  O15  1  0.66327000  0.35659000  0.00059000  1
  O  O16  1  0.83673000  0.85659000  0.99941000  1
  O  O17  1  0.83673000  0.14341000  0.99941000  1
  O  O18  1  0.16327000  0.14341000  0.00059000  1
  O  O19  1  0.16327000  0.85659000  0.00059000  1
  O  O20  1  0.39740000  0.18190000  0.06969000  1
  O  O21  1  0.39740000  0.81810000  0.06969000  1
  O  O22  1  0.60260000  0.81810000  0.93031000  1
  O  O23  1  0.60260000  0.18190000  0.93031000  1
  O  O24  1  0.89740000  0.68190000  0.06969000  1
  O  O25  1  0.89740000  0.31810000  0.06969000  1
  O  O26  1  0.10260000  0.31810000  0.93031000  1
  O  O27  1  0.10260000  0.68190000  0.93031000  1
  O  O28  1  0.30489000  0.14517000  0.14935000  1
  O  O29  1  0.30489000  0.85483000  0.14935000  1
  O  O30  1  0.69511000  0.85483000  0.85065000  1
  O  O31  1  0.69511000  0.14517000  0.85065000  1
  O  O32  1  0.80489000  0.64517000  0.14935000  1
  O  O33  1  0.80489000  0.35483000  0.14935000  1
  O  O34  1  0.19511000  0.35483000  0.85065000  1
  O  O35  1  0.19511000  0.64517000  0.85065000  1
  O  O36  1  0.32515000  0.00000000  0.07319000  1
  O  O37  1  0.67485000  0.00000000  0.92681000  1
  O  O38  1  0.82515000  0.50000000  0.07319000  1
  O  O39  1  0.17485000  0.50000000  0.92681000  1
  O  O40  1  0.25516000  0.11991000  0.25217000  1
  O  O41  1  0.25516000  0.88009000  0.25217000  1
  O  O42  1  0.74484000  0.88009000  0.74783000  1
  O  O43  1  0.74484000  0.11991000  0.74783000  1
  O  O44  1  0.75516000  0.61991000  0.25217000  1
  O  O45  1  0.75516000  0.38009000  0.25217000  1
  O  O46  1  0.24484000  0.38009000  0.74783000  1
  O  O47  1  0.24484000  0.61991000  0.74783000  1
  O  O48  1  0.06441000  0.00000000  0.19119000  1
  O  O49  1  0.93559000  0.00000000  0.80881000  1
  O  O50  1  0.56441000  0.50000000  0.19119000  1
  O  O51  1  0.43559000  0.50000000  0.80881000  1
  O  O52  1  0.05940000  0.17093000  0.25033000  1
  O  O53  1  0.05940000  0.82907000  0.25033000  1
  O  O54  1  0.94060000  0.82907000  0.74967000  1
  O  O55  1  0.94060000  0.17093000  0.74967000  1
  O  O56  1  0.55940000  0.67093000  0.25033000  1
  O  O57  1  0.55940000  0.32907000  0.25033000  1
  O  O58  1  0.44060000  0.32907000  0.74967000  1
  O  O59  1  0.44060000  0.67093000  0.74967000  1
  O  O60  1  0.47206000  0.18634000  0.29248000  1
  O  O61  1  0.47206000  0.81366000  0.29248000  1
  O  O62  1  0.52794000  0.81366000  0.70752000  1
  O  O63  1  0.52794000  0.18634000  0.70752000  1
  O  O64  1  0.97206000  0.68634000  0.29248000  1
  O  O65  1  0.97206000  0.31366000  0.29248000  1
  O  O66  1  0.02794000  0.31366000  0.70752000  1
  O  O67  1  0.02794000  0.68634000  0.70752000  1
  O  O68  1  0.40985000  0.00000000  0.24842000  1
  O  O69  1  0.59015000  0.00000000  0.75158000  1
  O  O70  1  0.90985000  0.50000000  0.24842000  1
  O  O71  1  0.09015000  0.50000000  0.75158000  1
  O  O72  1  0.12618000  0.18303000  0.39177000  1
  O  O73  1  0.12618000  0.81697000  0.39177000  1
  O  O74  1  0.87382000  0.81697000  0.60823000  1
  O  O75  1  0.87382000  0.18303000  0.60823000  1
  O  O76  1  0.62618000  0.68303000  0.39177000  1
  O  O77  1  0.62618000  0.31697000  0.39177000  1
  O  O78  1  0.37382000  0.31697000  0.60823000  1
  O  O79  1  0.37382000  0.68303000  0.60823000  1
  O  O80  1  0.20340000  0.31680000  0.33647000  1
  O  O81  1  0.20340000  0.68320000  0.33647000  1
  O  O82  1  0.79660000  0.68320000  0.66353000  1
  O  O83  1  0.79660000  0.31680000  0.66353000  1
  O  O84  1  0.70340000  0.81680000  0.33647000  1
  O  O85  1  0.70340000  0.18320000  0.33647000  1
  O  O86  1  0.29660000  0.18320000  0.66353000  1
  O  O87  1  0.29660000  0.81680000  0.66353000  1
  O  O88  1  0.28954000  0.50000000  0.37088000  1
  O  O89  1  0.71046000  0.50000000  0.62912000  1
  O  O90  1  0.78954000  0.00000000  0.37088000  1
  O  O91  1  0.21046000  0.00000000  0.62912000  1
  O  O92  1  0.33471000  0.37411000  0.47840000  1
  O  O93  1  0.33471000  0.62589000  0.47840000  1
  O  O94  1  0.66529000  0.62589000  0.52160000  1
  O  O95  1  0.66529000  0.37411000  0.52160000  1
  O  O96  1  0.83471000  0.87411000  0.47840000  1
  O  O97  1  0.83471000  0.12589000  0.47840000  1
  O  O98  1  0.16529000  0.12589000  0.52160000  1
  O  O99  1  0.16529000  0.87411000  0.52160000  1
  O  O100  1  0.43979000  0.34929000  0.40412000  1
  O  O101  1  0.43979000  0.65071000  0.40412000  1
  O  O102  1  0.56021000  0.65071000  0.59588000  1
  O  O103  1  0.56021000  0.34929000  0.59588000  1
  O  O104  1  0.93979000  0.84929000  0.40412000  1
  O  O105  1  0.93979000  0.15071000  0.40412000  1
  O  O106  1  0.06021000  0.15071000  0.59588000  1
  O  O107  1  0.06021000  0.84929000  0.59588000  1
  O  O108  1  0.07135000  0.00000000  0.40769000  1
  O  O109  1  0.92865000  0.00000000  0.59231000  1
  O  O110  1  0.57135000  0.50000000  0.40769000  1
  O  O111  1  0.42865000  0.50000000  0.59231000  1
