# generated using pymatgen
data_SiO4
_symmetry_space_group_name_H-M   'P 1'
_cell_length_a   26.68900000
_cell_length_b   26.68900000
_cell_length_c   12.90800000
_cell_angle_alpha   90.00000000
_cell_angle_beta   90.00000000
_cell_angle_gamma   90.00000000
_symmetry_Int_Tables_number   1
_chemical_formula_structural   SiO4
_chemical_formula_sum   'Si1 O4'
_cell_volume   9194.40352267
_cell_formula_units_Z   1
loop_
 _symmetry_equiv_pos_site_id
 _symmetry_equiv_pos_as_xyz
  1  'x, y, z'
loop_
 _atom_site_type_symbol
 _atom_site_label
 _atom_site_symmetry_multiplicity
 _atom_site_fract_x
 _atom_site_fract_y
 _atom_site_fract_z
 _atom_site_occupancy
  Si  Si0  1  0.18230000  0.44200000  0.38350000  1
  O  O1  1  0.17660000  0.42110000  0.50000000  1
  O  O2  1  0.16590000  0.50000000  0.38140000  1
  O  O3  1  0.23970000  0.43680000  0.34670000  1
  O  O4  1  0.14640000  0.41140000  0.30580000  1
