# generated using pymatgen
data_O2
_symmetry_space_group_name_H-M   'P 1'
_cell_length_a   26.68900000
_cell_length_b   26.68900000
_cell_length_c   12.90800000
_cell_angle_alpha   90.00000000
_cell_angle_beta   90.00000000
_cell_angle_gamma   90.00000000
_symmetry_Int_Tables_number   1
_chemical_formula_structural   O2
_chemical_formula_sum   O272
_cell_volume   9194.40352267
_cell_formula_units_Z   136
loop_
 _symmetry_equiv_pos_site_id
 _symmetry_equiv_pos_as_xyz
  1  'x, y, z'
loop_
 _atom_site_type_symbol
 _atom_site_label
 _atom_site_symmetry_multiplicity
 _atom_site_fract_x
 _atom_site_fract_y
 _atom_site_fract_z
 _atom_site_occupancy
  O  O0  1  0.07890000  0.32340000  0.00000000  1
  O  O1  1  0.57890000  0.82340000  0.50000000  1
  O  O2  1  0.92110000  0.67660000  0.00000000  1
  O  O3  1  0.42110000  0.17660000  0.50000000  1
  O  O4  1  0.67660000  0.07890000  0.00000000  1
  O  O5  1  0.17660000  0.57890000  0.50000000  1
  O  O6  1  0.32340000  0.92110000  0.00000000  1
  O  O7  1  0.82340000  0.42110000  0.50000000  1
  O  O8  1  0.92110000  0.32340000  0.00000000  1
  O  O9  1  0.42110000  0.82340000  0.50000000  1
  O  O10  1  0.07890000  0.67660000  0.00000000  1
  O  O11  1  0.57890000  0.17660000  0.50000000  1
  O  O12  1  0.32340000  0.07890000  0.00000000  1
  O  O13  1  0.82340000  0.57890000  0.50000000  1
  O  O14  1  0.67660000  0.92110000  0.00000000  1
  O  O15  1  0.17660000  0.42110000  0.50000000  1
  O  O16  1  0.00000000  0.33410000  0.11860000  1
  O  O17  1  0.50000000  0.83410000  0.61860000  1
  O  O18  1  0.00000000  0.66590000  0.11860000  1
  O  O19  1  0.50000000  0.16590000  0.61860000  1
  O  O20  1  0.66590000  0.00000000  0.11860000  1
  O  O21  1  0.16590000  0.50000000  0.61860000  1
  O  O22  1  0.33410000  0.00000000  0.11860000  1
  O  O23  1  0.83410000  0.50000000  0.61860000  1
  O  O24  1  0.00000000  0.33410000  0.88140000  1
  O  O25  1  0.50000000  0.83410000  0.38140000  1
  O  O26  1  0.00000000  0.66590000  0.88140000  1
  O  O27  1  0.50000000  0.16590000  0.38140000  1
  O  O28  1  0.33410000  0.00000000  0.88140000  1
  O  O29  1  0.83410000  0.50000000  0.38140000  1
  O  O30  1  0.66590000  0.00000000  0.88140000  1
  O  O31  1  0.16590000  0.50000000  0.38140000  1
  O  O32  1  0.06320000  0.26030000  0.15330000  1
  O  O33  1  0.56320000  0.76030000  0.65330000  1
  O  O34  1  0.93680000  0.73970000  0.15330000  1
  O  O35  1  0.43680000  0.23970000  0.65330000  1
  O  O36  1  0.73970000  0.06320000  0.15330000  1
  O  O37  1  0.23970000  0.56320000  0.65330000  1
  O  O38  1  0.26030000  0.93680000  0.15330000  1
  O  O39  1  0.76030000  0.43680000  0.65330000  1
  O  O40  1  0.93680000  0.26030000  0.84670000  1
  O  O41  1  0.43680000  0.76030000  0.34670000  1
  O  O42  1  0.06320000  0.73970000  0.84670000  1
  O  O43  1  0.56320000  0.23970000  0.34670000  1
  O  O44  1  0.26030000  0.06320000  0.84670000  1
  O  O45  1  0.76030000  0.56320000  0.34670000  1
  O  O46  1  0.73970000  0.93680000  0.84670000  1
  O  O47  1  0.23970000  0.43680000  0.34670000  1
  O  O48  1  0.93680000  0.73970000  0.84670000  1
  O  O49  1  0.43680000  0.23970000  0.34670000  1
  O  O50  1  0.06320000  0.26030000  0.84670000  1
  O  O51  1  0.56320000  0.76030000  0.34670000  1
  O  O52  1  0.26030000  0.93680000  0.84670000  1
  O  O53  1  0.76030000  0.43680000  0.34670000  1
  O  O54  1  0.73970000  0.06320000  0.84670000  1
  O  O55  1  0.23970000  0.56320000  0.34670000  1
  O  O56  1  0.06320000  0.73970000  0.15330000  1
  O  O57  1  0.56320000  0.23970000  0.65330000  1
  O  O58  1  0.93680000  0.26030000  0.15330000  1
  O  O59  1  0.43680000  0.76030000  0.65330000  1
  O  O60  1  0.73970000  0.93680000  0.15330000  1
  O  O61  1  0.23970000  0.43680000  0.65330000  1
  O  O62  1  0.26030000  0.06320000  0.15330000  1
  O  O63  1  0.76030000  0.56320000  0.65330000  1
  O  O64  1  0.08860000  0.35360000  0.19420000  1
  O  O65  1  0.58860000  0.85360000  0.69420000  1
  O  O66  1  0.91140000  0.64640000  0.19420000  1
  O  O67  1  0.41140000  0.14640000  0.69420000  1
  O  O68  1  0.64640000  0.08860000  0.19420000  1
  O  O69  1  0.14640000  0.58860000  0.69420000  1
  O  O70  1  0.35360000  0.91140000  0.19420000  1
  O  O71  1  0.85360000  0.41140000  0.69420000  1
  O  O72  1  0.91140000  0.35360000  0.80580000  1
  O  O73  1  0.41140000  0.85360000  0.30580000  1
  O  O74  1  0.08860000  0.64640000  0.80580000  1
  O  O75  1  0.58860000  0.14640000  0.30580000  1
  O  O76  1  0.35360000  0.08860000  0.80580000  1
  O  O77  1  0.85360000  0.58860000  0.30580000  1
  O  O78  1  0.64640000  0.91140000  0.80580000  1
  O  O79  1  0.14640000  0.41140000  0.30580000  1
  O  O80  1  0.91140000  0.64640000  0.80580000  1
  O  O81  1  0.41140000  0.14640000  0.30580000  1
  O  O82  1  0.08860000  0.35360000  0.80580000  1
  O  O83  1  0.58860000  0.85360000  0.30580000  1
  O  O84  1  0.35360000  0.91140000  0.80580000  1
  O  O85  1  0.85360000  0.41140000  0.30580000  1
  O  O86  1  0.64640000  0.08860000  0.80580000  1
  O  O87  1  0.14640000  0.58860000  0.30580000  1
  O  O88  1  0.08860000  0.64640000  0.19420000  1
  O  O89  1  0.58860000  0.14640000  0.69420000  1
  O  O90  1  0.91140000  0.35360000  0.19420000  1
  O  O91  1  0.41140000  0.85360000  0.69420000  1
  O  O92  1  0.64640000  0.91140000  0.19420000  1
  O  O93  1  0.14640000  0.41140000  0.69420000  1
  O  O94  1  0.35360000  0.08860000  0.19420000  1
  O  O95  1  0.85360000  0.58860000  0.69420000  1
  O  O96  1  0.09870000  0.17010000  0.18240000  1
  O  O97  1  0.59870000  0.67010000  0.68240000  1
  O  O98  1  0.90130000  0.82990000  0.18240000  1
  O  O99  1  0.40130000  0.32990000  0.68240000  1
  O  O100  1  0.82990000  0.09870000  0.18240000  1
  O  O101  1  0.32990000  0.59870000  0.68240000  1
  O  O102  1  0.17010000  0.90130000  0.18240000  1
  O  O103  1  0.67010000  0.40130000  0.68240000  1
  O  O104  1  0.90130000  0.17010000  0.81760000  1
  O  O105  1  0.40130000  0.67010000  0.31760000  1
  O  O106  1  0.09870000  0.82990000  0.81760000  1
  O  O107  1  0.59870000  0.32990000  0.31760000  1
  O  O108  1  0.17010000  0.09870000  0.81760000  1
  O  O109  1  0.67010000  0.59870000  0.31760000  1
  O  O110  1  0.82990000  0.90130000  0.81760000  1
  O  O111  1  0.32990000  0.40130000  0.31760000  1
  O  O112  1  0.90130000  0.82990000  0.81760000  1
  O  O113  1  0.40130000  0.32990000  0.31760000  1
  O  O114  1  0.09870000  0.17010000  0.81760000  1
  O  O115  1  0.59870000  0.67010000  0.31760000  1
  O  O116  1  0.17010000  0.90130000  0.81760000  1
  O  O117  1  0.67010000  0.40130000  0.31760000  1
  O  O118  1  0.82990000  0.09870000  0.81760000  1
  O  O119  1  0.32990000  0.59870000  0.31760000  1
  O  O120  1  0.09870000  0.82990000  0.18240000  1
  O  O121  1  0.59870000  0.32990000  0.68240000  1
  O  O122  1  0.90130000  0.17010000  0.18240000  1
  O  O123  1  0.40130000  0.67010000  0.68240000  1
  O  O124  1  0.82990000  0.90130000  0.18240000  1
  O  O125  1  0.32990000  0.40130000  0.68240000  1
  O  O126  1  0.17010000  0.09870000  0.18240000  1
  O  O127  1  0.67010000  0.59870000  0.68240000  1
  O  O128  1  0.06540000  0.19580000  0.00000000  1
  O  O129  1  0.56540000  0.69580000  0.50000000  1
  O  O130  1  0.93460000  0.80420000  0.00000000  1
  O  O131  1  0.43460000  0.30420000  0.50000000  1
  O  O132  1  0.80420000  0.06540000  0.00000000  1
  O  O133  1  0.30420000  0.56540000  0.50000000  1
  O  O134  1  0.19580000  0.93460000  0.00000000  1
  O  O135  1  0.69580000  0.43460000  0.50000000  1
  O  O136  1  0.93460000  0.19580000  0.00000000  1
  O  O137  1  0.43460000  0.69580000  0.50000000  1
  O  O138  1  0.06540000  0.80420000  0.00000000  1
  O  O139  1  0.56540000  0.30420000  0.50000000  1
  O  O140  1  0.19580000  0.06540000  0.00000000  1
  O  O141  1  0.69580000  0.56540000  0.50000000  1
  O  O142  1  0.80420000  0.93460000  0.00000000  1
  O  O143  1  0.30420000  0.43460000  0.50000000  1
  O  O144  1  0.00000000  0.18520000  0.15010000  1
  O  O145  1  0.50000000  0.68520000  0.65010000  1
  O  O146  1  0.00000000  0.81480000  0.15010000  1
  O  O147  1  0.50000000  0.31480000  0.65010000  1
  O  O148  1  0.81480000  0.00000000  0.15010000  1
  O  O149  1  0.31480000  0.50000000  0.65010000  1
  O  O150  1  0.18520000  0.00000000  0.15010000  1
  O  O151  1  0.68520000  0.50000000  0.65010000  1
  O  O152  1  0.00000000  0.18520000  0.84990000  1
  O  O153  1  0.50000000  0.68520000  0.34990000  1
  O  O154  1  0.00000000  0.81480000  0.84990000  1
  O  O155  1  0.50000000  0.31480000  0.34990000  1
  O  O156  1  0.18520000  0.00000000  0.84990000  1
  O  O157  1  0.68520000  0.50000000  0.34990000  1
  O  O158  1  0.81480000  0.00000000  0.84990000  1
  O  O159  1  0.31480000  0.50000000  0.34990000  1
  O  O160  1  0.07040000  0.07040000  0.50000000  1
  O  O161  1  0.57040000  0.57040000  0.00000000  1
  O  O162  1  0.92960000  0.92960000  0.50000000  1
  O  O163  1  0.42960000  0.42960000  0.00000000  1
  O  O164  1  0.92960000  0.07040000  0.50000000  1
  O  O165  1  0.42960000  0.57040000  0.00000000  1
  O  O166  1  0.07040000  0.92960000  0.50000000  1
  O  O167  1  0.57040000  0.42960000  0.00000000  1
  O  O168  1  0.00000000  0.06970000  0.35710000  1
  O  O169  1  0.50000000  0.56970000  0.85710000  1
  O  O170  1  0.00000000  0.93030000  0.35710000  1
  O  O171  1  0.50000000  0.43030000  0.85710000  1
  O  O172  1  0.93030000  0.00000000  0.35710000  1
  O  O173  1  0.43030000  0.50000000  0.85710000  1
  O  O174  1  0.06970000  0.00000000  0.35710000  1
  O  O175  1  0.56970000  0.50000000  0.85710000  1
  O  O176  1  0.00000000  0.06970000  0.64290000  1
  O  O177  1  0.50000000  0.56970000  0.14290000  1
  O  O178  1  0.00000000  0.93030000  0.64290000  1
  O  O179  1  0.50000000  0.43030000  0.14290000  1
  O  O180  1  0.06970000  0.00000000  0.64290000  1
  O  O181  1  0.56970000  0.50000000  0.14290000  1
  O  O182  1  0.93030000  0.00000000  0.64290000  1
  O  O183  1  0.43030000  0.50000000  0.14290000  1
  O  O184  1  0.09230000  0.09230000  0.30670000  1
  O  O185  1  0.59230000  0.59230000  0.80670000  1
  O  O186  1  0.90770000  0.90770000  0.30670000  1
  O  O187  1  0.40770000  0.40770000  0.80670000  1
  O  O188  1  0.90770000  0.09230000  0.30670000  1
  O  O189  1  0.40770000  0.59230000  0.80670000  1
  O  O190  1  0.09230000  0.90770000  0.30670000  1
  O  O191  1  0.59230000  0.40770000  0.80670000  1
  O  O192  1  0.90770000  0.09230000  0.69330000  1
  O  O193  1  0.40770000  0.59230000  0.19330000  1
  O  O194  1  0.09230000  0.90770000  0.69330000  1
  O  O195  1  0.59230000  0.40770000  0.19330000  1
  O  O196  1  0.09230000  0.09230000  0.69330000  1
  O  O197  1  0.59230000  0.59230000  0.19330000  1
  O  O198  1  0.90770000  0.90770000  0.69330000  1
  O  O199  1  0.40770000  0.40770000  0.19330000  1
  O  O200  1  0.08300000  0.08300000  0.10300000  1
  O  O201  1  0.58300000  0.58300000  0.60300000  1
  O  O202  1  0.91700000  0.91700000  0.10300000  1
  O  O203  1  0.41700000  0.41700000  0.60300000  1
  O  O204  1  0.91700000  0.08300000  0.10300000  1
  O  O205  1  0.41700000  0.58300000  0.60300000  1
  O  O206  1  0.08300000  0.91700000  0.10300000  1
  O  O207  1  0.58300000  0.41700000  0.60300000  1
  O  O208  1  0.91700000  0.08300000  0.89700000  1
  O  O209  1  0.41700000  0.58300000  0.39700000  1
  O  O210  1  0.08300000  0.91700000  0.89700000  1
  O  O211  1  0.58300000  0.41700000  0.39700000  1
  O  O212  1  0.08300000  0.08300000  0.89700000  1
  O  O213  1  0.58300000  0.58300000  0.39700000  1
  O  O214  1  0.91700000  0.91700000  0.89700000  1
  O  O215  1  0.41700000  0.41700000  0.39700000  1
  O  O216  1  0.08640000  0.45090000  0.16460000  1
  O  O217  1  0.58640000  0.95090000  0.66460000  1
  O  O218  1  0.91360000  0.54910000  0.16460000  1
  O  O219  1  0.41360000  0.04910000  0.66460000  1
  O  O220  1  0.54910000  0.08640000  0.16460000  1
  O  O221  1  0.04910000  0.58640000  0.66460000  1
  O  O222  1  0.45090000  0.91360000  0.16460000  1
  O  O223  1  0.95090000  0.41360000  0.66460000  1
  O  O224  1  0.91360000  0.45090000  0.83540000  1
  O  O225  1  0.41360000  0.95090000  0.33540000  1
  O  O226  1  0.08640000  0.54910000  0.83540000  1
  O  O227  1  0.58640000  0.04910000  0.33540000  1
  O  O228  1  0.45090000  0.08640000  0.83540000  1
  O  O229  1  0.95090000  0.58640000  0.33540000  1
  O  O230  1  0.54910000  0.91360000  0.83540000  1
  O  O231  1  0.04910000  0.41360000  0.33540000  1
  O  O232  1  0.91360000  0.54910000  0.83540000  1
  O  O233  1  0.41360000  0.04910000  0.33540000  1
  O  O234  1  0.08640000  0.45090000  0.83540000  1
  O  O235  1  0.58640000  0.95090000  0.33540000  1
  O  O236  1  0.45090000  0.91360000  0.83540000  1
  O  O237  1  0.95090000  0.41360000  0.33540000  1
  O  O238  1  0.54910000  0.08640000  0.83540000  1
  O  O239  1  0.04910000  0.58640000  0.33540000  1
  O  O240  1  0.08640000  0.54910000  0.16460000  1
  O  O241  1  0.58640000  0.04910000  0.66460000  1
  O  O242  1  0.91360000  0.45090000  0.16460000  1
  O  O243  1  0.41360000  0.95090000  0.66460000  1
  O  O244  1  0.54910000  0.91360000  0.16460000  1
  O  O245  1  0.04910000  0.41360000  0.66460000  1
  O  O246  1  0.45090000  0.08640000  0.16460000  1
  O  O247  1  0.95090000  0.58640000  0.66460000  1
  O  O248  1  0.00000000  0.07000000  0.00000000  1
  O  O249  1  0.50000000  0.57000000  0.50000000  1
  O  O250  1  0.00000000  0.93000000  0.00000000  1
  O  O251  1  0.50000000  0.43000000  0.50000000  1
  O  O252  1  0.93000000  0.00000000  0.00000000  1
  O  O253  1  0.43000000  0.50000000  0.50000000  1
  O  O254  1  0.07000000  0.00000000  0.00000000  1
  O  O255  1  0.57000000  0.50000000  0.50000000  1
  O  O256  1  0.00000000  0.50000000  0.33540000  1
  O  O257  1  0.50000000  0.00000000  0.83540000  1
  O  O258  1  0.50000000  0.00000000  0.33540000  1
  O  O259  1  0.00000000  0.50000000  0.83540000  1
  O  O260  1  0.00000000  0.50000000  0.66460000  1
  O  O261  1  0.50000000  0.00000000  0.16460000  1
  O  O262  1  0.50000000  0.00000000  0.66460000  1
  O  O263  1  0.00000000  0.50000000  0.16460000  1
  O  O264  1  0.00000000  0.44240000  0.50000000  1
  O  O265  1  0.50000000  0.94240000  0.00000000  1
  O  O266  1  0.00000000  0.55760000  0.50000000  1
  O  O267  1  0.50000000  0.05760000  0.00000000  1
  O  O268  1  0.55760000  0.00000000  0.50000000  1
  O  O269  1  0.05760000  0.50000000  0.00000000  1
  O  O270  1  0.44240000  0.00000000  0.50000000  1
  O  O271  1  0.94240000  0.50000000  0.00000000  1
