# generated using pymatgen
data_Si
_symmetry_space_group_name_H-M   'P 1'
_cell_length_a   18.87000000
_cell_length_b   14.40100000
_cell_length_c   7.51400000
_cell_angle_alpha   90.00000000
_cell_angle_beta   90.00000000
_cell_angle_gamma   90.00000000
_symmetry_Int_Tables_number   1
_chemical_formula_structural   Si
_chemical_formula_sum   Si36
_cell_volume   2041.90598118
_cell_formula_units_Z   36
loop_
 _symmetry_equiv_pos_site_id
 _symmetry_equiv_pos_as_xyz
  1  'x, y, z'
loop_
 _atom_site_type_symbol
 _atom_site_label
 _atom_site_symmetry_multiplicity
 _atom_site_fract_x
 _atom_site_fract_y
 _atom_site_fract_z
 _atom_site_occupancy
  Si  Si0  1  0.08220000  0.19710000  0.29250000  1
  Si  Si1  1  0.58220000  0.69710000  0.29250000  1
  Si  Si2  1  0.91780000  0.19710000  0.29250000  1
  Si  Si3  1  0.41780000  0.69710000  0.29250000  1
  Si  Si4  1  0.08220000  0.80290000  0.29250000  1
  Si  Si5  1  0.58220000  0.30290000  0.29250000  1
  Si  Si6  1  0.91780000  0.80290000  0.29250000  1
  Si  Si7  1  0.41780000  0.30290000  0.29250000  1
  Si  Si8  1  0.91780000  0.80290000  0.70750000  1
  Si  Si9  1  0.41780000  0.30290000  0.70750000  1
  Si  Si10  1  0.08220000  0.80290000  0.70750000  1
  Si  Si11  1  0.58220000  0.30290000  0.70750000  1
  Si  Si12  1  0.91780000  0.19710000  0.70750000  1
  Si  Si13  1  0.41780000  0.69710000  0.70750000  1
  Si  Si14  1  0.08220000  0.19710000  0.70750000  1
  Si  Si15  1  0.58220000  0.69710000  0.70750000  1
  Si  Si16  1  0.17300000  0.29770000  0.00000000  1
  Si  Si17  1  0.67300000  0.79770000  0.00000000  1
  Si  Si18  1  0.82700000  0.29770000  0.00000000  1
  Si  Si19  1  0.32700000  0.79770000  0.00000000  1
  Si  Si20  1  0.17300000  0.70230000  0.00000000  1
  Si  Si21  1  0.67300000  0.20230000  0.00000000  1
  Si  Si22  1  0.82700000  0.70230000  0.00000000  1
  Si  Si23  1  0.32700000  0.20230000  0.00000000  1
  Si  Si24  1  0.14880000  0.00000000  0.29250000  1
  Si  Si25  1  0.64880000  0.50000000  0.29250000  1
  Si  Si26  1  0.85120000  0.00000000  0.29250000  1
  Si  Si27  1  0.35120000  0.50000000  0.29250000  1
  Si  Si28  1  0.85120000  0.00000000  0.70750000  1
  Si  Si29  1  0.35120000  0.50000000  0.70750000  1
  Si  Si30  1  0.14880000  0.00000000  0.70750000  1
  Si  Si31  1  0.64880000  0.50000000  0.70750000  1
  Si  Si32  1  0.26920000  0.00000000  0.00000000  1
  Si  Si33  1  0.76920000  0.50000000  0.00000000  1
  Si  Si34  1  0.73080000  0.00000000  0.00000000  1
  Si  Si35  1  0.23080000  0.50000000  0.00000000  1
