# generated using pymatgen
data_O2
_symmetry_space_group_name_H-M   'P 1'
_cell_length_a   7.54628000
_cell_length_b   29.16305000
_cell_length_c   18.12743000
_cell_angle_alpha   90.00000000
_cell_angle_beta   90.00000000
_cell_angle_gamma   90.00000000
_symmetry_Int_Tables_number   1
_chemical_formula_structural   O2
_chemical_formula_sum   O144
_cell_volume   3989.34958107
_cell_formula_units_Z   72
loop_
 _symmetry_equiv_pos_site_id
 _symmetry_equiv_pos_as_xyz
  1  'x, y, z'
loop_
 _atom_site_type_symbol
 _atom_site_label
 _atom_site_symmetry_multiplicity
 _atom_site_fract_x
 _atom_site_fract_y
 _atom_site_fract_z
 _atom_site_occupancy
  O  O0  1  0.75864000  0.31682000  0.09740000  1
  O  O1  1  0.75864000  0.68318000  0.90260000  1
  O  O2  1  0.75864000  0.31682000  0.40260000  1
  O  O3  1  0.75864000  0.68318000  0.59740000  1
  O  O4  1  0.24136000  0.68318000  0.90260000  1
  O  O5  1  0.24136000  0.31682000  0.09740000  1
  O  O6  1  0.24136000  0.68318000  0.59740000  1
  O  O7  1  0.24136000  0.31682000  0.40260000  1
  O  O8  1  0.25864000  0.81682000  0.09740000  1
  O  O9  1  0.25864000  0.18318000  0.90260000  1
  O  O10  1  0.25864000  0.81682000  0.40260000  1
  O  O11  1  0.25864000  0.18318000  0.59740000  1
  O  O12  1  0.74136000  0.18318000  0.90260000  1
  O  O13  1  0.74136000  0.81682000  0.09740000  1
  O  O14  1  0.74136000  0.18318000  0.59740000  1
  O  O15  1  0.74136000  0.81682000  0.40260000  1
  O  O16  1  0.17458000  0.49222000  0.12462000  1
  O  O17  1  0.17458000  0.50778000  0.87538000  1
  O  O18  1  0.17458000  0.49222000  0.37538000  1
  O  O19  1  0.17458000  0.50778000  0.62462000  1
  O  O20  1  0.82542000  0.50778000  0.87538000  1
  O  O21  1  0.82542000  0.49222000  0.12462000  1
  O  O22  1  0.82542000  0.50778000  0.62462000  1
  O  O23  1  0.82542000  0.49222000  0.37538000  1
  O  O24  1  0.67458000  0.99222000  0.12462000  1
  O  O25  1  0.67458000  0.00778000  0.87538000  1
  O  O26  1  0.67458000  0.99222000  0.37538000  1
  O  O27  1  0.67458000  0.00778000  0.62462000  1
  O  O28  1  0.32542000  0.00778000  0.87538000  1
  O  O29  1  0.32542000  0.99222000  0.12462000  1
  O  O30  1  0.32542000  0.00778000  0.62462000  1
  O  O31  1  0.32542000  0.99222000  0.37538000  1
  O  O32  1  0.67410000  0.23354000  0.13969000  1
  O  O33  1  0.67410000  0.76646000  0.86031000  1
  O  O34  1  0.67410000  0.23354000  0.36031000  1
  O  O35  1  0.67410000  0.76646000  0.63969000  1
  O  O36  1  0.32590000  0.76646000  0.86031000  1
  O  O37  1  0.32590000  0.23354000  0.13969000  1
  O  O38  1  0.32590000  0.76646000  0.63969000  1
  O  O39  1  0.32590000  0.23354000  0.36031000  1
  O  O40  1  0.17410000  0.73354000  0.13969000  1
  O  O41  1  0.17410000  0.26646000  0.86031000  1
  O  O42  1  0.17410000  0.73354000  0.36031000  1
  O  O43  1  0.17410000  0.26646000  0.63969000  1
  O  O44  1  0.82590000  0.26646000  0.86031000  1
  O  O45  1  0.82590000  0.73354000  0.13969000  1
  O  O46  1  0.82590000  0.26646000  0.63969000  1
  O  O47  1  0.82590000  0.73354000  0.36031000  1
  O  O48  1  0.67454000  0.12305000  0.00707000  1
  O  O49  1  0.67454000  0.87695000  0.99293000  1
  O  O50  1  0.67454000  0.12305000  0.49293000  1
  O  O51  1  0.67454000  0.87695000  0.50707000  1
  O  O52  1  0.32546000  0.87695000  0.99293000  1
  O  O53  1  0.32546000  0.12305000  0.00707000  1
  O  O54  1  0.32546000  0.87695000  0.50707000  1
  O  O55  1  0.32546000  0.12305000  0.49293000  1
  O  O56  1  0.17454000  0.62305000  0.00707000  1
  O  O57  1  0.17454000  0.37695000  0.99293000  1
  O  O58  1  0.17454000  0.62305000  0.49293000  1
  O  O59  1  0.17454000  0.37695000  0.50707000  1
  O  O60  1  0.82546000  0.37695000  0.99293000  1
  O  O61  1  0.82546000  0.62305000  0.00707000  1
  O  O62  1  0.82546000  0.37695000  0.50707000  1
  O  O63  1  0.82546000  0.62305000  0.49293000  1
  O  O64  1  0.73799000  0.40491000  0.12584000  1
  O  O65  1  0.73799000  0.59509000  0.87416000  1
  O  O66  1  0.73799000  0.40491000  0.37416000  1
  O  O67  1  0.73799000  0.59509000  0.62584000  1
  O  O68  1  0.26201000  0.59509000  0.87416000  1
  O  O69  1  0.26201000  0.40491000  0.12584000  1
  O  O70  1  0.26201000  0.59509000  0.62584000  1
  O  O71  1  0.26201000  0.40491000  0.37416000  1
  O  O72  1  0.23799000  0.90491000  0.12584000  1
  O  O73  1  0.23799000  0.09509000  0.87416000  1
  O  O74  1  0.23799000  0.90491000  0.37416000  1
  O  O75  1  0.23799000  0.09509000  0.62584000  1
  O  O76  1  0.76201000  0.09509000  0.87416000  1
  O  O77  1  0.76201000  0.90491000  0.12584000  1
  O  O78  1  0.76201000  0.09509000  0.62584000  1
  O  O79  1  0.76201000  0.90491000  0.37416000  1
  O  O80  1  0.50000000  0.06786000  0.09552000  1
  O  O81  1  0.50000000  0.93214000  0.90448000  1
  O  O82  1  0.50000000  0.06786000  0.40448000  1
  O  O83  1  0.50000000  0.93214000  0.59552000  1
  O  O84  1  0.00000000  0.56786000  0.09552000  1
  O  O85  1  0.00000000  0.43214000  0.90448000  1
  O  O86  1  0.00000000  0.56786000  0.40448000  1
  O  O87  1  0.00000000  0.43214000  0.59552000  1
  O  O88  1  0.50000000  0.15647000  0.12038000  1
  O  O89  1  0.50000000  0.84353000  0.87962000  1
  O  O90  1  0.50000000  0.15647000  0.37962000  1
  O  O91  1  0.50000000  0.84353000  0.62038000  1
  O  O92  1  0.00000000  0.65647000  0.12038000  1
  O  O93  1  0.00000000  0.34353000  0.87962000  1
  O  O94  1  0.00000000  0.65647000  0.37962000  1
  O  O95  1  0.00000000  0.34353000  0.62038000  1
  O  O96  1  0.00000000  0.25195000  0.10067000  1
  O  O97  1  0.00000000  0.74805000  0.89933000  1
  O  O98  1  0.00000000  0.25195000  0.39933000  1
  O  O99  1  0.00000000  0.74805000  0.60067000  1
  O  O100  1  0.50000000  0.75195000  0.10067000  1
  O  O101  1  0.50000000  0.24805000  0.89933000  1
  O  O102  1  0.50000000  0.75195000  0.39933000  1
  O  O103  1  0.50000000  0.24805000  0.60067000  1
  O  O104  1  0.50000000  0.46790000  0.15806000  1
  O  O105  1  0.50000000  0.53210000  0.84194000  1
  O  O106  1  0.50000000  0.46790000  0.34194000  1
  O  O107  1  0.50000000  0.53210000  0.65806000  1
  O  O108  1  0.00000000  0.96790000  0.15806000  1
  O  O109  1  0.00000000  0.03210000  0.84194000  1
  O  O110  1  0.00000000  0.96790000  0.34194000  1
  O  O111  1  0.00000000  0.03210000  0.65806000  1
  O  O112  1  0.50000000  0.36577000  0.04037000  1
  O  O113  1  0.50000000  0.63423000  0.95963000  1
  O  O114  1  0.50000000  0.36577000  0.45963000  1
  O  O115  1  0.50000000  0.63423000  0.54037000  1
  O  O116  1  0.00000000  0.86577000  0.04037000  1
  O  O117  1  0.00000000  0.13423000  0.95963000  1
  O  O118  1  0.00000000  0.86577000  0.45963000  1
  O  O119  1  0.00000000  0.13423000  0.54037000  1
  O  O120  1  0.50000000  0.19581000  0.25000000  1
  O  O121  1  0.50000000  0.80419000  0.75000000  1
  O  O122  1  0.00000000  0.69581000  0.25000000  1
  O  O123  1  0.00000000  0.30419000  0.75000000  1
  O  O124  1  0.76163000  0.45060000  0.25000000  1
  O  O125  1  0.76163000  0.54940000  0.75000000  1
  O  O126  1  0.23837000  0.54940000  0.75000000  1
  O  O127  1  0.23837000  0.45060000  0.25000000  1
  O  O128  1  0.26163000  0.95060000  0.25000000  1
  O  O129  1  0.26163000  0.04940000  0.75000000  1
  O  O130  1  0.73837000  0.04940000  0.75000000  1
  O  O131  1  0.73837000  0.95060000  0.25000000  1
  O  O132  1  0.75000000  0.25000000  0.00000000  1
  O  O133  1  0.75000000  0.75000000  0.00000000  1
  O  O134  1  0.75000000  0.25000000  0.50000000  1
  O  O135  1  0.75000000  0.75000000  0.50000000  1
  O  O136  1  0.25000000  0.75000000  0.00000000  1
  O  O137  1  0.25000000  0.25000000  0.00000000  1
  O  O138  1  0.25000000  0.75000000  0.50000000  1
  O  O139  1  0.25000000  0.25000000  0.50000000  1
  O  O140  1  0.50000000  0.00000000  0.00000000  1
  O  O141  1  0.50000000  0.00000000  0.50000000  1
  O  O142  1  0.00000000  0.50000000  0.00000000  1
  O  O143  1  0.00000000  0.50000000  0.50000000  1
