# generated using pymatgen
data_Si
_symmetry_space_group_name_H-M   'P 1'
_cell_length_a   7.54628000
_cell_length_b   29.16305000
_cell_length_c   18.12743000
_cell_angle_alpha   90.00000000
_cell_angle_beta   90.00000000
_cell_angle_gamma   90.00000000
_symmetry_Int_Tables_number   1
_chemical_formula_structural   Si
_chemical_formula_sum   Si72
_cell_volume   3989.34958107
_cell_formula_units_Z   72
loop_
 _symmetry_equiv_pos_site_id
 _symmetry_equiv_pos_as_xyz
  1  'x, y, z'
loop_
 _atom_site_type_symbol
 _atom_site_label
 _atom_site_symmetry_multiplicity
 _atom_site_fract_x
 _atom_site_fract_y
 _atom_site_fract_z
 _atom_site_occupancy
  Si  Si0  1  0.70566000  0.45387000  0.16449000  1
  Si  Si1  1  0.70566000  0.54613000  0.83551000  1
  Si  Si2  1  0.70566000  0.45387000  0.33551000  1
  Si  Si3  1  0.70566000  0.54613000  0.66449000  1
  Si  Si4  1  0.29434000  0.54613000  0.83551000  1
  Si  Si5  1  0.29434000  0.45387000  0.16449000  1
  Si  Si6  1  0.29434000  0.54613000  0.66449000  1
  Si  Si7  1  0.29434000  0.45387000  0.33551000  1
  Si  Si8  1  0.20566000  0.95387000  0.16449000  1
  Si  Si9  1  0.20566000  0.04613000  0.83551000  1
  Si  Si10  1  0.20566000  0.95387000  0.33551000  1
  Si  Si11  1  0.20566000  0.04613000  0.66449000  1
  Si  Si12  1  0.79434000  0.04613000  0.83551000  1
  Si  Si13  1  0.79434000  0.95387000  0.16449000  1
  Si  Si14  1  0.79434000  0.04613000  0.66449000  1
  Si  Si15  1  0.79434000  0.95387000  0.33551000  1
  Si  Si16  1  0.79491000  0.26306000  0.08402000  1
  Si  Si17  1  0.79491000  0.73694000  0.91598000  1
  Si  Si18  1  0.79491000  0.26306000  0.41598000  1
  Si  Si19  1  0.79491000  0.73694000  0.58402000  1
  Si  Si20  1  0.20509000  0.73694000  0.91598000  1
  Si  Si21  1  0.20509000  0.26306000  0.08402000  1
  Si  Si22  1  0.20509000  0.73694000  0.58402000  1
  Si  Si23  1  0.20509000  0.26306000  0.41598000  1
  Si  Si24  1  0.29491000  0.76306000  0.08402000  1
  Si  Si25  1  0.29491000  0.23694000  0.91598000  1
  Si  Si26  1  0.29491000  0.76306000  0.41598000  1
  Si  Si27  1  0.29491000  0.23694000  0.58402000  1
  Si  Si28  1  0.70509000  0.23694000  0.91598000  1
  Si  Si29  1  0.70509000  0.76306000  0.08402000  1
  Si  Si30  1  0.70509000  0.23694000  0.58402000  1
  Si  Si31  1  0.70509000  0.76306000  0.41598000  1
  Si  Si32  1  0.70544000  0.36612000  0.06419000  1
  Si  Si33  1  0.70544000  0.63388000  0.93581000  1
  Si  Si34  1  0.70544000  0.36612000  0.43581000  1
  Si  Si35  1  0.70544000  0.63388000  0.56419000  1
  Si  Si36  1  0.29456000  0.63388000  0.93581000  1
  Si  Si37  1  0.29456000  0.36612000  0.06419000  1
  Si  Si38  1  0.29456000  0.63388000  0.56419000  1
  Si  Si39  1  0.29456000  0.36612000  0.43581000  1
  Si  Si40  1  0.20544000  0.86612000  0.06419000  1
  Si  Si41  1  0.20544000  0.13388000  0.93581000  1
  Si  Si42  1  0.20544000  0.86612000  0.43581000  1
  Si  Si43  1  0.20544000  0.13388000  0.56419000  1
  Si  Si44  1  0.79456000  0.13388000  0.93581000  1
  Si  Si45  1  0.79456000  0.86612000  0.06419000  1
  Si  Si46  1  0.79456000  0.13388000  0.56419000  1
  Si  Si47  1  0.79456000  0.86612000  0.43581000  1
  Si  Si48  1  0.50000000  0.11769000  0.05728000  1
  Si  Si49  1  0.50000000  0.88231000  0.94272000  1
  Si  Si50  1  0.50000000  0.11769000  0.44272000  1
  Si  Si51  1  0.50000000  0.88231000  0.55728000  1
  Si  Si52  1  0.00000000  0.61769000  0.05728000  1
  Si  Si53  1  0.00000000  0.38231000  0.94272000  1
  Si  Si54  1  0.00000000  0.61769000  0.44272000  1
  Si  Si55  1  0.00000000  0.38231000  0.55728000  1
  Si  Si56  1  0.50000000  0.20503000  0.16255000  1
  Si  Si57  1  0.50000000  0.79497000  0.83745000  1
  Si  Si58  1  0.50000000  0.20503000  0.33745000  1
  Si  Si59  1  0.50000000  0.79497000  0.66255000  1
  Si  Si60  1  0.00000000  0.70503000  0.16255000  1
  Si  Si61  1  0.00000000  0.29497000  0.83745000  1
  Si  Si62  1  0.00000000  0.70503000  0.33745000  1
  Si  Si63  1  0.00000000  0.29497000  0.66255000  1
  Si  Si64  1  0.50000000  0.01297000  0.08611000  1
  Si  Si65  1  0.50000000  0.98703000  0.91389000  1
  Si  Si66  1  0.50000000  0.01297000  0.41389000  1
  Si  Si67  1  0.50000000  0.98703000  0.58611000  1
  Si  Si68  1  0.00000000  0.51297000  0.08611000  1
  Si  Si69  1  0.00000000  0.48703000  0.91389000  1
  Si  Si70  1  0.00000000  0.51297000  0.41389000  1
  Si  Si71  1  0.00000000  0.48703000  0.58611000  1
