# generated using pymatgen
data_SiO4
_symmetry_space_group_name_H-M   'P 1'
_cell_length_a   7.54628000
_cell_length_b   29.16305000
_cell_length_c   18.12743000
_cell_angle_alpha   90.00000000
_cell_angle_beta   90.00000000
_cell_angle_gamma   90.00000000
_symmetry_Int_Tables_number   1
_chemical_formula_structural   SiO4
_chemical_formula_sum   'Si1 O4'
_cell_volume   3989.34958107
_cell_formula_units_Z   1
loop_
 _symmetry_equiv_pos_site_id
 _symmetry_equiv_pos_as_xyz
  1  'x, y, z'
loop_
 _atom_site_type_symbol
 _atom_site_label
 _atom_site_symmetry_multiplicity
 _atom_site_fract_x
 _atom_site_fract_y
 _atom_site_fract_z
 _atom_site_occupancy
  Si  Si0  1  0.29491000  0.76306000  0.41598000  1
  O  O1  1  0.25864000  0.81682000  0.40260000  1
  O  O2  1  0.17410000  0.73354000  0.36031000  1
  O  O3  1  0.50000000  0.75195000  0.39933000  1
  O  O4  1  0.25000000  0.75000000  0.50000000  1
