# generated using pymatgen
data_SiO4
_symmetry_space_group_name_H-M   'P 1'
_cell_length_a   7.54628000
_cell_length_b   29.16305000
_cell_length_c   18.12743000
_cell_angle_alpha   90.00000000
_cell_angle_beta   90.00000000
_cell_angle_gamma   90.00000000
_symmetry_Int_Tables_number   1
_chemical_formula_structural   SiO4
_chemical_formula_sum   'Si1 O4'
_cell_volume   3989.34958107
_cell_formula_units_Z   1
loop_
 _symmetry_equiv_pos_site_id
 _symmetry_equiv_pos_as_xyz
  1  'x, y, z'
loop_
 _atom_site_type_symbol
 _atom_site_label
 _atom_site_symmetry_multiplicity
 _atom_site_fract_x
 _atom_site_fract_y
 _atom_site_fract_z
 _atom_site_occupancy
  Si  Si0  1  0.70544000  0.63388000  0.56419000  1
  O  O1  1  0.75864000  0.68318000  0.59740000  1
  O  O2  1  0.82546000  0.62305000  0.49293000  1
  O  O3  1  0.73799000  0.59509000  0.62584000  1
  O  O4  1  0.50000000  0.63423000  0.54037000  1
