# generated using pymatgen
data_O2
_symmetry_space_group_name_H-M   'P 1'
_cell_length_a   13.62070000
_cell_length_b   7.54660000
_cell_length_c   13.62190000
_cell_angle_alpha   90.00000000
_cell_angle_beta   90.00000000
_cell_angle_gamma   90.00000000
_symmetry_Int_Tables_number   1
_chemical_formula_structural   O2
_chemical_formula_sum   O48
_cell_volume   1400.19475528
_cell_formula_units_Z   24
loop_
 _symmetry_equiv_pos_site_id
 _symmetry_equiv_pos_as_xyz
  1  'x, y, z'
loop_
 _atom_site_type_symbol
 _atom_site_label
 _atom_site_symmetry_multiplicity
 _atom_site_fract_x
 _atom_site_fract_y
 _atom_site_fract_z
 _atom_site_occupancy
  O  O0  1  0.75000000  0.23699000  0.24096000  1
  O  O1  1  0.25000000  0.23699000  0.75904000  1
  O  O2  1  0.25000000  0.76301000  0.75904000  1
  O  O3  1  0.75000000  0.76301000  0.24096000  1
  O  O4  1  0.57778000  0.27319000  0.32564000  1
  O  O5  1  0.42222000  0.27319000  0.67436000  1
  O  O6  1  0.92222000  0.27319000  0.32564000  1
  O  O7  1  0.07778000  0.27319000  0.67436000  1
  O  O8  1  0.42222000  0.72681000  0.67436000  1
  O  O9  1  0.57778000  0.72681000  0.32564000  1
  O  O10  1  0.07778000  0.72681000  0.67436000  1
  O  O11  1  0.92222000  0.72681000  0.32564000  1
  O  O12  1  0.58882000  0.17414000  0.14077000  1
  O  O13  1  0.41118000  0.17414000  0.85923000  1
  O  O14  1  0.91118000  0.17414000  0.14077000  1
  O  O15  1  0.08882000  0.17414000  0.85923000  1
  O  O16  1  0.41118000  0.82586000  0.85923000  1
  O  O17  1  0.58882000  0.82586000  0.14077000  1
  O  O18  1  0.08882000  0.82586000  0.85923000  1
  O  O19  1  0.91118000  0.82586000  0.14077000  1
  O  O20  1  0.63414000  0.50000000  0.19019000  1
  O  O21  1  0.36586000  0.50000000  0.80981000  1
  O  O22  1  0.86586000  0.50000000  0.19019000  1
  O  O23  1  0.13414000  0.50000000  0.80981000  1
  O  O24  1  0.00000000  0.23394000  0.50000000  1
  O  O25  1  0.50000000  0.23394000  0.50000000  1
  O  O26  1  0.00000000  0.76606000  0.50000000  1
  O  O27  1  0.50000000  0.76606000  0.50000000  1
  O  O28  1  0.89340000  0.17420000  0.65767000  1
  O  O29  1  0.10660000  0.17420000  0.34233000  1
  O  O30  1  0.60660000  0.17420000  0.65767000  1
  O  O31  1  0.39340000  0.17420000  0.34233000  1
  O  O32  1  0.10660000  0.82580000  0.34233000  1
  O  O33  1  0.89340000  0.82580000  0.65767000  1
  O  O34  1  0.39340000  0.82580000  0.34233000  1
  O  O35  1  0.60660000  0.82580000  0.65767000  1
  O  O36  1  0.94494000  0.50000000  0.61206000  1
  O  O37  1  0.05506000  0.50000000  0.38794000  1
  O  O38  1  0.55506000  0.50000000  0.61206000  1
  O  O39  1  0.44494000  0.50000000  0.38794000  1
  O  O40  1  0.57423000  0.00000000  0.82168000  1
  O  O41  1  0.42577000  0.00000000  0.17832000  1
  O  O42  1  0.92577000  0.00000000  0.82168000  1
  O  O43  1  0.07423000  0.00000000  0.17832000  1
  O  O44  1  0.75000000  0.00000000  0.74428000  1
  O  O45  1  0.25000000  0.00000000  0.25572000  1
  O  O46  1  0.50000000  0.00000000  0.00000000  1
  O  O47  1  0.00000000  0.00000000  0.00000000  1
