# generated using pymatgen
data_Si
_symmetry_space_group_name_H-M   'P 1'
_cell_length_a   13.62070000
_cell_length_b   7.54660000
_cell_length_c   13.62190000
_cell_angle_alpha   90.00000000
_cell_angle_beta   90.00000000
_cell_angle_gamma   90.00000000
_symmetry_Int_Tables_number   1
_chemical_formula_structural   Si
_chemical_formula_sum   Si24
_cell_volume   1400.19475528
_cell_formula_units_Z   24
loop_
 _symmetry_equiv_pos_site_id
 _symmetry_equiv_pos_as_xyz
  1  'x, y, z'
loop_
 _atom_site_type_symbol
 _atom_site_label
 _atom_site_symmetry_multiplicity
 _atom_site_fract_x
 _atom_site_fract_y
 _atom_site_fract_z
 _atom_site_occupancy
  Si  Si0  1  0.63760000  0.29603000  0.22456000  1
  Si  Si1  1  0.36240000  0.29603000  0.77544000  1
  Si  Si2  1  0.86240000  0.29603000  0.22456000  1
  Si  Si3  1  0.13760000  0.29603000  0.77544000  1
  Si  Si4  1  0.36240000  0.70397000  0.77544000  1
  Si  Si5  1  0.63760000  0.70397000  0.22456000  1
  Si  Si6  1  0.13760000  0.70397000  0.77544000  1
  Si  Si7  1  0.86240000  0.70397000  0.22456000  1
  Si  Si8  1  0.97873000  0.29560000  0.61113000  1
  Si  Si9  1  0.02127000  0.29560000  0.38887000  1
  Si  Si10  1  0.52127000  0.29560000  0.61113000  1
  Si  Si11  1  0.47873000  0.29560000  0.38887000  1
  Si  Si12  1  0.02127000  0.70440000  0.38887000  1
  Si  Si13  1  0.97873000  0.70440000  0.61113000  1
  Si  Si14  1  0.47873000  0.70440000  0.38887000  1
  Si  Si15  1  0.52127000  0.70440000  0.61113000  1
  Si  Si16  1  0.63443000  0.00000000  0.71998000  1
  Si  Si17  1  0.36557000  0.00000000  0.28002000  1
  Si  Si18  1  0.86557000  0.00000000  0.71998000  1
  Si  Si19  1  0.13443000  0.00000000  0.28002000  1
  Si  Si20  1  0.52559000  0.00000000  0.11512000  1
  Si  Si21  1  0.47441000  0.00000000  0.88488000  1
  Si  Si22  1  0.97441000  0.00000000  0.11512000  1
  Si  Si23  1  0.02559000  0.00000000  0.88488000  1
