# generated using pymatgen
data_SiO4
_symmetry_space_group_name_H-M   'P 1'
_cell_length_a   13.11400000
_cell_length_b   13.11400000
_cell_length_c   15.56300000
_cell_angle_alpha   90.00000000
_cell_angle_beta   90.00000000
_cell_angle_gamma   120.00000000
_symmetry_Int_Tables_number   1
_chemical_formula_structural   SiO4
_chemical_formula_sum   'Si1 O4'
_cell_volume   2317.89793093
_cell_formula_units_Z   1
loop_
 _symmetry_equiv_pos_site_id
 _symmetry_equiv_pos_as_xyz
  1  'x, y, z'
loop_
 _atom_site_type_symbol
 _atom_site_label
 _atom_site_symmetry_multiplicity
 _atom_site_fract_x
 _atom_site_fract_y
 _atom_site_fract_z
 _atom_site_occupancy
  Si  Si0  1  0.52170000  0.66960000  0.97050000  1
  O  O1  1  0.57610000  0.80300000  1.00390000  1
  O  O2  1  0.43950000  0.64960000  0.88810000  1
  O  O3  1  0.62690000  0.64610000  0.94440000  1
  O  O4  1  0.44420000  0.58000000  1.04580000  1
