# generated using pymatgen
data_SiO4
_symmetry_space_group_name_H-M   'P 1'
_cell_length_a   13.11400000
_cell_length_b   13.11400000
_cell_length_c   15.56300000
_cell_angle_alpha   90.00000000
_cell_angle_beta   90.00000000
_cell_angle_gamma   120.00000000
_symmetry_Int_Tables_number   1
_chemical_formula_structural   SiO4
_chemical_formula_sum   'Si1 O4'
_cell_volume   2317.89793093
_cell_formula_units_Z   1
loop_
 _symmetry_equiv_pos_site_id
 _symmetry_equiv_pos_as_xyz
  1  'x, y, z'
loop_
 _atom_site_type_symbol
 _atom_site_label
 _atom_site_symmetry_multiplicity
 _atom_site_fract_x
 _atom_site_fract_y
 _atom_site_fract_z
 _atom_site_occupancy
  Si  Si0  1  0.47830000  0.33040000  0.47050000  1
  O  O1  1  0.42390000  0.19700000  0.50390000  1
  O  O2  1  0.56050000  0.35040000  0.38810000  1
  O  O3  1  0.37310000  0.35390000  0.44440000  1
  O  O4  1  0.55580000  0.42000000  0.54580000  1
