# generated using pymatgen
data_O2
_symmetry_space_group_name_H-M   'P 1'
_cell_length_a   13.11400000
_cell_length_b   13.11400000
_cell_length_c   15.56300000
_cell_angle_alpha   90.00000000
_cell_angle_beta   90.00000000
_cell_angle_gamma   120.00000000
_symmetry_Int_Tables_number   1
_chemical_formula_structural   O2
_chemical_formula_sum   O68
_cell_volume   2317.89793093
_cell_formula_units_Z   34
loop_
 _symmetry_equiv_pos_site_id
 _symmetry_equiv_pos_as_xyz
  1  'x, y, z'
loop_
 _atom_site_type_symbol
 _atom_site_label
 _atom_site_symmetry_multiplicity
 _atom_site_fract_x
 _atom_site_fract_y
 _atom_site_fract_z
 _atom_site_occupancy
  O  O0  1  0.80300000  0.22690000  0.50390000  1
  O  O1  1  0.77310000  0.57610000  0.50390000  1
  O  O2  1  0.42390000  0.19700000  0.50390000  1
  O  O3  1  0.19700000  0.77310000  0.00390000  1
  O  O4  1  0.22690000  0.42390000  0.00390000  1
  O  O5  1  0.57610000  0.80300000  0.00390000  1
  O  O6  1  0.19700000  0.77310000  0.49610000  1
  O  O7  1  0.22690000  0.42390000  0.49610000  1
  O  O8  1  0.57610000  0.80300000  0.49610000  1
  O  O9  1  0.80300000  0.22690000  0.99610000  1
  O  O10  1  0.77310000  0.57610000  0.99610000  1
  O  O11  1  0.42390000  0.19700000  0.99610000  1
  O  O12  1  0.64960000  0.21010000  0.38810000  1
  O  O13  1  0.78990000  0.43950000  0.38810000  1
  O  O14  1  0.56050000  0.35040000  0.38810000  1
  O  O15  1  0.35040000  0.78990000  0.88810000  1
  O  O16  1  0.21010000  0.56050000  0.88810000  1
  O  O17  1  0.43950000  0.64960000  0.88810000  1
  O  O18  1  0.35040000  0.78990000  0.61190000  1
  O  O19  1  0.21010000  0.56050000  0.61190000  1
  O  O20  1  0.43950000  0.64960000  0.61190000  1
  O  O21  1  0.64960000  0.21010000  0.11190000  1
  O  O22  1  0.78990000  0.43950000  0.11190000  1
  O  O23  1  0.56050000  0.35040000  0.11190000  1
  O  O24  1  0.64610000  0.01920000  0.44440000  1
  O  O25  1  0.98080000  0.62690000  0.44440000  1
  O  O26  1  0.37310000  0.35390000  0.44440000  1
  O  O27  1  0.35390000  0.98080000  0.94440000  1
  O  O28  1  0.01920000  0.37310000  0.94440000  1
  O  O29  1  0.62690000  0.64610000  0.94440000  1
  O  O30  1  0.35390000  0.98080000  0.55560000  1
  O  O31  1  0.01920000  0.37310000  0.55560000  1
  O  O32  1  0.62690000  0.64610000  0.55560000  1
  O  O33  1  0.64610000  0.01920000  0.05560000  1
  O  O34  1  0.98080000  0.62690000  0.05560000  1
  O  O35  1  0.37310000  0.35390000  0.05560000  1
  O  O36  1  0.58000000  0.13580000  0.54580000  1
  O  O37  1  0.86420000  0.44420000  0.54580000  1
  O  O38  1  0.55580000  0.42000000  0.54580000  1
  O  O39  1  0.42000000  0.86420000  0.04580000  1
  O  O40  1  0.13580000  0.55580000  0.04580000  1
  O  O41  1  0.44420000  0.58000000  0.04580000  1
  O  O42  1  0.42000000  0.86420000  0.45420000  1
  O  O43  1  0.13580000  0.55580000  0.45420000  1
  O  O44  1  0.44420000  0.58000000  0.45420000  1
  O  O45  1  0.58000000  0.13580000  0.95420000  1
  O  O46  1  0.86420000  0.44420000  0.95420000  1
  O  O47  1  0.55580000  0.42000000  0.95420000  1
  O  O48  1  0.44980000  0.15630000  0.66550000  1
  O  O49  1  0.84370000  0.29350000  0.66550000  1
  O  O50  1  0.70650000  0.55020000  0.66550000  1
  O  O51  1  0.55020000  0.84370000  0.16550000  1
  O  O52  1  0.15630000  0.70650000  0.16550000  1
  O  O53  1  0.29350000  0.44980000  0.16550000  1
  O  O54  1  0.55020000  0.84370000  0.33450000  1
  O  O55  1  0.15630000  0.70650000  0.33450000  1
  O  O56  1  0.29350000  0.44980000  0.33450000  1
  O  O57  1  0.44980000  0.15630000  0.83450000  1
  O  O58  1  0.84370000  0.29350000  0.83450000  1
  O  O59  1  0.70650000  0.55020000  0.83450000  1
  O  O60  1  0.56450000  0.35630000  0.75000000  1
  O  O61  1  0.64370000  0.20820000  0.75000000  1
  O  O62  1  0.79180000  0.43550000  0.75000000  1
  O  O63  1  0.43550000  0.64370000  0.25000000  1
  O  O64  1  0.35630000  0.79180000  0.25000000  1
  O  O65  1  0.20820000  0.56450000  0.25000000  1
  O  O66  1  0.66666667  0.33333333  0.25000000  1
  O  O67  1  0.33333333  0.66666667  0.75000000  1
