# generated using pymatgen
data_Si
_symmetry_space_group_name_H-M   'P 1'
_cell_length_a   13.11400000
_cell_length_b   13.11400000
_cell_length_c   15.56300000
_cell_angle_alpha   90.00000000
_cell_angle_beta   90.00000000
_cell_angle_gamma   120.00000000
_symmetry_Int_Tables_number   1
_chemical_formula_structural   Si
_chemical_formula_sum   Si34
_cell_volume   2317.89793093
_cell_formula_units_Z   34
loop_
 _symmetry_equiv_pos_site_id
 _symmetry_equiv_pos_as_xyz
  1  'x, y, z'
loop_
 _atom_site_type_symbol
 _atom_site_label
 _atom_site_symmetry_multiplicity
 _atom_site_fract_x
 _atom_site_fract_y
 _atom_site_fract_z
 _atom_site_occupancy
  Si  Si0  1  0.66960000  0.14790000  0.47050000  1
  Si  Si1  1  0.85210000  0.52170000  0.47050000  1
  Si  Si2  1  0.47830000  0.33040000  0.47050000  1
  Si  Si3  1  0.33040000  0.85210000  0.97050000  1
  Si  Si4  1  0.14790000  0.47830000  0.97050000  1
  Si  Si5  1  0.52170000  0.66960000  0.97050000  1
  Si  Si6  1  0.33040000  0.85210000  0.52950000  1
  Si  Si7  1  0.14790000  0.47830000  0.52950000  1
  Si  Si8  1  0.52170000  0.66960000  0.52950000  1
  Si  Si9  1  0.66960000  0.14790000  0.02950000  1
  Si  Si10  1  0.85210000  0.52170000  0.02950000  1
  Si  Si11  1  0.47830000  0.33040000  0.02950000  1
  Si  Si12  1  0.45190000  0.11740000  0.56770000  1
  Si  Si13  1  0.88260000  0.33450000  0.56770000  1
  Si  Si14  1  0.66550000  0.54810000  0.56770000  1
  Si  Si15  1  0.54810000  0.88260000  0.06770000  1
  Si  Si16  1  0.11740000  0.66550000  0.06770000  1
  Si  Si17  1  0.33450000  0.45190000  0.06770000  1
  Si  Si18  1  0.54810000  0.88260000  0.43230000  1
  Si  Si19  1  0.11740000  0.66550000  0.43230000  1
  Si  Si20  1  0.33450000  0.45190000  0.43230000  1
  Si  Si21  1  0.45190000  0.11740000  0.93230000  1
  Si  Si22  1  0.88260000  0.33450000  0.93230000  1
  Si  Si23  1  0.66550000  0.54810000  0.93230000  1
  Si  Si24  1  0.52650000  0.21890000  0.75000000  1
  Si  Si25  1  0.78110000  0.30760000  0.75000000  1
  Si  Si26  1  0.69240000  0.47350000  0.75000000  1
  Si  Si27  1  0.47350000  0.78110000  0.25000000  1
  Si  Si28  1  0.21890000  0.69240000  0.25000000  1
  Si  Si29  1  0.30760000  0.52650000  0.25000000  1
  Si  Si30  1  0.66666667  0.33333333  0.35330000  1
  Si  Si31  1  0.33333333  0.66666667  0.85330000  1
  Si  Si32  1  0.33333333  0.66666667  0.64670000  1
  Si  Si33  1  0.66666667  0.33333333  0.14670000  1
