# generated using pymatgen
data_SiO4
_symmetry_space_group_name_H-M   'P 1'
_cell_length_a   13.67200000
_cell_length_b   13.67200000
_cell_length_c   9.85000000
_cell_angle_alpha   90.00000000
_cell_angle_beta   90.00000000
_cell_angle_gamma   120.00000000
_symmetry_Int_Tables_number   1
_chemical_formula_structural   SiO4
_chemical_formula_sum   'Si1 O4'
_cell_volume   1594.52363726
_cell_formula_units_Z   1
loop_
 _symmetry_equiv_pos_site_id
 _symmetry_equiv_pos_as_xyz
  1  'x, y, z'
loop_
 _atom_site_type_symbol
 _atom_site_label
 _atom_site_symmetry_multiplicity
 _atom_site_fract_x
 _atom_site_fract_y
 _atom_site_fract_z
 _atom_site_occupancy
  Si  Si0  1  0.55970000  0.89360000  0.59240000  1
  O  O1  1  0.43120000  0.86250000  0.56560000  1
  O  O2  1  0.64350000  1.00000000  0.50000000  1
  O  O3  1  0.59060000  0.92480000  0.75000000  1
  O  O4  1  0.57410000  0.78710000  0.55360000  1
