# generated using pymatgen
data_O2
_symmetry_space_group_name_H-M   'P 1'
_cell_length_a   13.67200000
_cell_length_b   13.67200000
_cell_length_c   9.85000000
_cell_angle_alpha   90.00000000
_cell_angle_beta   90.00000000
_cell_angle_gamma   120.00000000
_symmetry_Int_Tables_number   1
_chemical_formula_structural   O2
_chemical_formula_sum   O48
_cell_volume   1594.52363726
_cell_formula_units_Z   24
loop_
 _symmetry_equiv_pos_site_id
 _symmetry_equiv_pos_as_xyz
  1  'x, y, z'
loop_
 _atom_site_type_symbol
 _atom_site_label
 _atom_site_symmetry_multiplicity
 _atom_site_fract_x
 _atom_site_fract_y
 _atom_site_fract_z
 _atom_site_occupancy
  O  O0  1  0.56880000  0.13750000  0.06560000  1
  O  O1  1  0.86250000  0.43130000  0.06560000  1
  O  O2  1  0.56870000  0.43120000  0.06560000  1
  O  O3  1  0.43120000  0.86250000  0.56560000  1
  O  O4  1  0.13750000  0.56870000  0.56560000  1
  O  O5  1  0.43130000  0.56880000  0.56560000  1
  O  O6  1  0.43120000  0.86250000  0.93440000  1
  O  O7  1  0.13750000  0.56870000  0.93440000  1
  O  O8  1  0.43130000  0.56880000  0.93440000  1
  O  O9  1  0.56880000  0.13750000  0.43440000  1
  O  O10  1  0.86250000  0.43130000  0.43440000  1
  O  O11  1  0.56870000  0.43120000  0.43440000  1
  O  O12  1  0.35650000  0.00000000  0.00000000  1
  O  O13  1  0.00000000  0.35650000  0.00000000  1
  O  O14  1  0.64350000  0.64350000  0.00000000  1
  O  O15  1  0.64350000  0.00000000  0.50000000  1
  O  O16  1  0.00000000  0.64350000  0.50000000  1
  O  O17  1  0.35650000  0.35650000  0.50000000  1
  O  O18  1  0.00000000  0.64350000  0.00000000  1
  O  O19  1  0.64350000  0.00000000  0.00000000  1
  O  O20  1  0.35650000  0.35650000  0.00000000  1
  O  O21  1  0.00000000  0.35650000  0.50000000  1
  O  O22  1  0.35650000  0.00000000  0.50000000  1
  O  O23  1  0.64350000  0.64350000  0.50000000  1
  O  O24  1  0.40940000  0.07520000  0.25000000  1
  O  O25  1  0.92480000  0.33420000  0.25000000  1
  O  O26  1  0.66580000  0.59060000  0.25000000  1
  O  O27  1  0.59060000  0.92480000  0.75000000  1
  O  O28  1  0.07520000  0.66580000  0.75000000  1
  O  O29  1  0.33420000  0.40940000  0.75000000  1
  O  O30  1  0.92480000  0.59060000  0.25000000  1
  O  O31  1  0.66580000  0.07520000  0.25000000  1
  O  O32  1  0.40940000  0.33420000  0.25000000  1
  O  O33  1  0.07520000  0.40940000  0.75000000  1
  O  O34  1  0.33420000  0.92480000  0.75000000  1
  O  O35  1  0.59060000  0.66580000  0.75000000  1
  O  O36  1  0.42590000  0.21290000  0.05360000  1
  O  O37  1  0.78710000  0.21300000  0.05360000  1
  O  O38  1  0.78700000  0.57410000  0.05360000  1
  O  O39  1  0.57410000  0.78710000  0.55360000  1
  O  O40  1  0.21290000  0.78700000  0.55360000  1
  O  O41  1  0.21300000  0.42590000  0.55360000  1
  O  O42  1  0.57410000  0.78710000  0.94640000  1
  O  O43  1  0.21290000  0.78700000  0.94640000  1
  O  O44  1  0.21300000  0.42590000  0.94640000  1
  O  O45  1  0.42590000  0.21290000  0.44640000  1
  O  O46  1  0.78710000  0.21300000  0.44640000  1
  O  O47  1  0.78700000  0.57410000  0.44640000  1
