# generated using pymatgen
data_Si
_symmetry_space_group_name_H-M   'P 1'
_cell_length_a   20.43700000
_cell_length_b   7.11600000
_cell_length_c   9.72600000
_cell_angle_alpha   90.00000000
_cell_angle_beta   90.00000000
_cell_angle_gamma   90.00000000
_symmetry_Int_Tables_number   1
_chemical_formula_structural   Si
_chemical_formula_sum   Si24
_cell_volume   1414.44918439
_cell_formula_units_Z   24
loop_
 _symmetry_equiv_pos_site_id
 _symmetry_equiv_pos_as_xyz
  1  'x, y, z'
loop_
 _atom_site_type_symbol
 _atom_site_label
 _atom_site_symmetry_multiplicity
 _atom_site_fract_x
 _atom_site_fract_y
 _atom_site_fract_z
 _atom_site_occupancy
  Si  Si0  1  0.18840000  0.51770000  0.16140000  1
  Si  Si1  1  0.81160000  0.51770000  0.16140000  1
  Si  Si2  1  0.68840000  0.48230000  0.66140000  1
  Si  Si3  1  0.31160000  0.48230000  0.66140000  1
  Si  Si4  1  0.81160000  0.48230000  0.83860000  1
  Si  Si5  1  0.18840000  0.48230000  0.83860000  1
  Si  Si6  1  0.31160000  0.51770000  0.33860000  1
  Si  Si7  1  0.68840000  0.51770000  0.33860000  1
  Si  Si8  1  0.07370000  0.24020000  0.14520000  1
  Si  Si9  1  0.92630000  0.24020000  0.14520000  1
  Si  Si10  1  0.57370000  0.75980000  0.64520000  1
  Si  Si11  1  0.42630000  0.75980000  0.64520000  1
  Si  Si12  1  0.92630000  0.75980000  0.85480000  1
  Si  Si13  1  0.07370000  0.75980000  0.85480000  1
  Si  Si14  1  0.42630000  0.24020000  0.35480000  1
  Si  Si15  1  0.57370000  0.24020000  0.35480000  1
  Si  Si16  1  0.13070000  0.88110000  0.11120000  1
  Si  Si17  1  0.86930000  0.88110000  0.11120000  1
  Si  Si18  1  0.63070000  0.11890000  0.61120000  1
  Si  Si19  1  0.36930000  0.11890000  0.61120000  1
  Si  Si20  1  0.86930000  0.11890000  0.88880000  1
  Si  Si21  1  0.13070000  0.11890000  0.88880000  1
  Si  Si22  1  0.36930000  0.88110000  0.38880000  1
  Si  Si23  1  0.63070000  0.88110000  0.38880000  1
