# generated using pymatgen
data_SiO4
_symmetry_space_group_name_H-M   'P 1'
_cell_length_a   16.43882000
_cell_length_b   4.94530000
_cell_length_c   22.78303000
_cell_angle_alpha   90.00000000
_cell_angle_beta   90.00000000
_cell_angle_gamma   90.00000000
_symmetry_Int_Tables_number   1
_chemical_formula_structural   SiO4
_chemical_formula_sum   'Si1 O4'
_cell_volume   1852.14406685
_cell_formula_units_Z   1
loop_
 _symmetry_equiv_pos_site_id
 _symmetry_equiv_pos_as_xyz
  1  'x, y, z'
loop_
 _atom_site_type_symbol
 _atom_site_label
 _atom_site_symmetry_multiplicity
 _atom_site_fract_x
 _atom_site_fract_y
 _atom_site_fract_z
 _atom_site_occupancy
  Si  Si0  1  0.22364000  0.60938000  0.78576000  1
  O  O1  1  0.12972000  0.68770000  0.79665000  1
  O  O2  1  0.27155000  0.87269000  0.76266000  1
  O  O3  1  0.22845000  0.37269000  0.73734000  1
  O  O4  1  0.26493000  0.50437000  0.84569000  1
