# generated using pymatgen
data_SiO4
_symmetry_space_group_name_H-M   'P 1'
_cell_length_a   16.43882000
_cell_length_b   4.94530000
_cell_length_c   22.78303000
_cell_angle_alpha   90.00000000
_cell_angle_beta   90.00000000
_cell_angle_gamma   90.00000000
_symmetry_Int_Tables_number   1
_chemical_formula_structural   SiO4
_chemical_formula_sum   'Si1 O4'
_cell_volume   1852.14406685
_cell_formula_units_Z   1
loop_
 _symmetry_equiv_pos_site_id
 _symmetry_equiv_pos_as_xyz
  1  'x, y, z'
loop_
 _atom_site_type_symbol
 _atom_site_label
 _atom_site_symmetry_multiplicity
 _atom_site_fract_x
 _atom_site_fract_y
 _atom_site_fract_z
 _atom_site_occupancy
  Si  Si0  1  0.40797000  0.91119000  0.06899000  1
  O  O1  1  0.50000000  1.00000000  0.08320000  1
  O  O2  1  0.34652000  1.10302000  0.10511000  1
  O  O3  1  0.39402000  0.60243000  0.08896000  1
  O  O4  1  0.38960000  0.94237000  0.00000000  1
