# generated using pymatgen
data_Si
_symmetry_space_group_name_H-M   'P 1'
_cell_length_a   16.43882000
_cell_length_b   4.94530000
_cell_length_c   22.78303000
_cell_angle_alpha   90.00000000
_cell_angle_beta   90.00000000
_cell_angle_gamma   90.00000000
_symmetry_Int_Tables_number   1
_chemical_formula_structural   Si
_chemical_formula_sum   Si32
_cell_volume   1852.14406685
_cell_formula_units_Z   32
loop_
 _symmetry_equiv_pos_site_id
 _symmetry_equiv_pos_as_xyz
  1  'x, y, z'
loop_
 _atom_site_type_symbol
 _atom_site_label
 _atom_site_symmetry_multiplicity
 _atom_site_fract_x
 _atom_site_fract_y
 _atom_site_fract_z
 _atom_site_occupancy
  Si  Si0  1  0.44513000  0.26330000  0.25411000  1
  Si  Si1  1  0.55487000  0.73670000  0.25411000  1
  Si  Si2  1  0.94513000  0.23670000  0.24589000  1
  Si  Si3  1  0.05487000  0.76330000  0.24589000  1
  Si  Si4  1  0.55487000  0.73670000  0.74589000  1
  Si  Si5  1  0.44513000  0.26330000  0.74589000  1
  Si  Si6  1  0.05487000  0.76330000  0.75411000  1
  Si  Si7  1  0.94513000  0.23670000  0.75411000  1
  Si  Si8  1  0.27636000  0.10938000  0.28576000  1
  Si  Si9  1  0.72364000  0.89062000  0.28576000  1
  Si  Si10  1  0.77636000  0.39062000  0.21424000  1
  Si  Si11  1  0.22364000  0.60938000  0.21424000  1
  Si  Si12  1  0.72364000  0.89062000  0.71424000  1
  Si  Si13  1  0.27636000  0.10938000  0.71424000  1
  Si  Si14  1  0.22364000  0.60938000  0.78576000  1
  Si  Si15  1  0.77636000  0.39062000  0.78576000  1
  Si  Si16  1  0.59203000  0.08881000  0.06899000  1
  Si  Si17  1  0.40797000  0.91119000  0.06899000  1
  Si  Si18  1  0.09203000  0.41119000  0.43101000  1
  Si  Si19  1  0.90797000  0.58881000  0.43101000  1
  Si  Si20  1  0.40797000  0.91119000  0.93101000  1
  Si  Si21  1  0.59203000  0.08881000  0.93101000  1
  Si  Si22  1  0.90797000  0.58881000  0.56899000  1
  Si  Si23  1  0.09203000  0.41119000  0.56899000  1
  Si  Si24  1  0.35354000  0.39669000  0.13528000  1
  Si  Si25  1  0.64646000  0.60331000  0.13528000  1
  Si  Si26  1  0.85354000  0.10331000  0.36472000  1
  Si  Si27  1  0.14646000  0.89669000  0.36472000  1
  Si  Si28  1  0.64646000  0.60331000  0.86472000  1
  Si  Si29  1  0.35354000  0.39669000  0.86472000  1
  Si  Si30  1  0.14646000  0.89669000  0.63528000  1
  Si  Si31  1  0.85354000  0.10331000  0.63528000  1
