# generated using pymatgen
data_O2
_symmetry_space_group_name_H-M   'P 1'
_cell_length_a   16.43882000
_cell_length_b   4.94530000
_cell_length_c   22.78303000
_cell_angle_alpha   90.00000000
_cell_angle_beta   90.00000000
_cell_angle_gamma   90.00000000
_symmetry_Int_Tables_number   1
_chemical_formula_structural   O2
_chemical_formula_sum   O64
_cell_volume   1852.14406685
_cell_formula_units_Z   32
loop_
 _symmetry_equiv_pos_site_id
 _symmetry_equiv_pos_as_xyz
  1  'x, y, z'
loop_
 _atom_site_type_symbol
 _atom_site_label
 _atom_site_symmetry_multiplicity
 _atom_site_fract_x
 _atom_site_fract_y
 _atom_site_fract_z
 _atom_site_occupancy
  O  O0  1  0.41036000  0.37406000  0.19257000  1
  O  O1  1  0.58964000  0.62594000  0.19257000  1
  O  O2  1  0.91036000  0.12594000  0.30743000  1
  O  O3  1  0.08964000  0.87406000  0.30743000  1
  O  O4  1  0.58964000  0.62594000  0.80743000  1
  O  O5  1  0.41036000  0.37406000  0.80743000  1
  O  O6  1  0.08964000  0.87406000  0.69257000  1
  O  O7  1  0.91036000  0.12594000  0.69257000  1
  O  O8  1  0.50000000  0.00000000  0.24210000  1
  O  O9  1  0.00000000  0.50000000  0.25790000  1
  O  O10  1  0.50000000  0.00000000  0.75790000  1
  O  O11  1  0.00000000  0.50000000  0.74210000  1
  O  O12  1  0.50000000  0.50000000  0.28244000  1
  O  O13  1  0.00000000  0.00000000  0.21756000  1
  O  O14  1  0.50000000  0.50000000  0.71756000  1
  O  O15  1  0.00000000  0.00000000  0.78244000  1
  O  O16  1  0.37028000  0.18770000  0.29665000  1
  O  O17  1  0.62972000  0.81230000  0.29665000  1
  O  O18  1  0.87028000  0.31230000  0.20335000  1
  O  O19  1  0.12972000  0.68770000  0.20335000  1
  O  O20  1  0.62972000  0.81230000  0.70335000  1
  O  O21  1  0.37028000  0.18770000  0.70335000  1
  O  O22  1  0.12972000  0.68770000  0.79665000  1
  O  O23  1  0.87028000  0.31230000  0.79665000  1
  O  O24  1  0.27155000  0.87269000  0.23734000  1
  O  O25  1  0.72845000  0.12731000  0.23734000  1
  O  O26  1  0.77155000  0.62731000  0.26266000  1
  O  O27  1  0.22845000  0.37269000  0.26266000  1
  O  O28  1  0.72845000  0.12731000  0.76266000  1
  O  O29  1  0.27155000  0.87269000  0.76266000  1
  O  O30  1  0.22845000  0.37269000  0.73734000  1
  O  O31  1  0.77155000  0.62731000  0.73734000  1
  O  O32  1  0.23507000  0.00437000  0.34569000  1
  O  O33  1  0.76493000  0.99563000  0.34569000  1
  O  O34  1  0.73507000  0.49563000  0.15431000  1
  O  O35  1  0.26493000  0.50437000  0.15431000  1
  O  O36  1  0.76493000  0.99563000  0.65431000  1
  O  O37  1  0.23507000  0.00437000  0.65431000  1
  O  O38  1  0.26493000  0.50437000  0.84569000  1
  O  O39  1  0.73507000  0.49563000  0.84569000  1
  O  O40  1  0.50000000  0.00000000  0.08320000  1
  O  O41  1  0.00000000  0.50000000  0.41680000  1
  O  O42  1  0.50000000  0.00000000  0.91680000  1
  O  O43  1  0.00000000  0.50000000  0.58320000  1
  O  O44  1  0.65348000  0.89698000  0.10511000  1
  O  O45  1  0.34652000  0.10302000  0.10511000  1
  O  O46  1  0.15348000  0.60302000  0.39489000  1
  O  O47  1  0.84652000  0.39698000  0.39489000  1
  O  O48  1  0.34652000  0.10302000  0.89489000  1
  O  O49  1  0.65348000  0.89698000  0.89489000  1
  O  O50  1  0.84652000  0.39698000  0.60511000  1
  O  O51  1  0.15348000  0.60302000  0.60511000  1
  O  O52  1  0.60598000  0.39757000  0.08896000  1
  O  O53  1  0.39402000  0.60243000  0.08896000  1
  O  O54  1  0.10598000  0.10243000  0.41104000  1
  O  O55  1  0.89402000  0.89757000  0.41104000  1
  O  O56  1  0.39402000  0.60243000  0.91104000  1
  O  O57  1  0.60598000  0.39757000  0.91104000  1
  O  O58  1  0.89402000  0.89757000  0.58896000  1
  O  O59  1  0.10598000  0.10243000  0.58896000  1
  O  O60  1  0.61040000  0.05763000  0.00000000  1
  O  O61  1  0.38960000  0.94237000  0.00000000  1
  O  O62  1  0.11040000  0.44237000  0.50000000  1
  O  O63  1  0.88960000  0.55763000  0.50000000  1
