# generated using pymatgen
data_SiO4
_symmetry_space_group_name_H-M   'P 1'
_cell_length_a   41.69080000
_cell_length_b   12.71280000
_cell_length_c   12.71140000
_cell_angle_alpha   90.00000000
_cell_angle_beta   90.00000000
_cell_angle_gamma   90.00000000
_symmetry_Int_Tables_number   1
_chemical_formula_structural   SiO4
_chemical_formula_sum   'Si1 O4'
_cell_volume   6737.12846599
_cell_formula_units_Z   1
loop_
 _symmetry_equiv_pos_site_id
 _symmetry_equiv_pos_as_xyz
  1  'x, y, z'
loop_
 _atom_site_type_symbol
 _atom_site_label
 _atom_site_symmetry_multiplicity
 _atom_site_fract_x
 _atom_site_fract_y
 _atom_site_fract_z
 _atom_site_occupancy
  Si  Si0  1  0.59345000  0.73649000  0.37907000  1
  O  O1  1  0.61437000  0.64960000  0.31754000  1
  O  O2  1  0.59832000  0.84931000  0.32381000  1
  O  O3  1  0.60479000  0.74251000  0.50000000  1
  O  O4  1  0.55621000  0.70336000  0.37406000  1
