# generated using pymatgen
data_SiO4
_symmetry_space_group_name_H-M   'P 1'
_cell_length_a   41.69080000
_cell_length_b   12.71280000
_cell_length_c   12.71140000
_cell_angle_alpha   90.00000000
_cell_angle_beta   90.00000000
_cell_angle_gamma   90.00000000
_symmetry_Int_Tables_number   1
_chemical_formula_structural   SiO4
_chemical_formula_sum   'Si1 O4'
_cell_volume   6737.12846599
_cell_formula_units_Z   1
loop_
 _symmetry_equiv_pos_site_id
 _symmetry_equiv_pos_as_xyz
  1  'x, y, z'
loop_
 _atom_site_type_symbol
 _atom_site_label
 _atom_site_symmetry_multiplicity
 _atom_site_fract_x
 _atom_site_fract_y
 _atom_site_fract_z
 _atom_site_occupancy
  Si  Si0  1  0.53940000  0.38172000  0.30707000  1
  O  O1  1  0.55129000  0.34254000  0.19311000  1
  O  O2  1  0.55903000  0.31939000  0.39654000  1
  O  O3  1  0.54545000  0.50613000  0.32044000  1
  O  O4  1  0.50173000  0.35743000  0.32064000  1
