# generated using pymatgen
data_SiO4
_symmetry_space_group_name_H-M   'P 1'
_cell_length_a   41.69080000
_cell_length_b   12.71280000
_cell_length_c   12.71140000
_cell_angle_alpha   90.00000000
_cell_angle_beta   90.00000000
_cell_angle_gamma   90.00000000
_symmetry_Int_Tables_number   1
_chemical_formula_structural   SiO4
_chemical_formula_sum   'Si1 O4'
_cell_volume   6737.12846599
_cell_formula_units_Z   1
loop_
 _symmetry_equiv_pos_site_id
 _symmetry_equiv_pos_as_xyz
  1  'x, y, z'
loop_
 _atom_site_type_symbol
 _atom_site_label
 _atom_site_symmetry_multiplicity
 _atom_site_fract_x
 _atom_site_fract_y
 _atom_site_fract_z
 _atom_site_occupancy
  Si  Si0  1  0.64511000  0.43527000  0.12136000  1
  O  O1  1  0.61203000  0.38038000  0.15678000  1
  O  O2  1  0.64255000  0.47040000  0.00000000  1
  O  O3  1  0.67419000  0.35307000  0.13527000  1
  O  O4  1  0.65150000  0.53788000  0.19253000  1
