# generated using pymatgen
data_Si
_symmetry_space_group_name_H-M   'P 1'
_cell_length_a   41.69080000
_cell_length_b   12.71280000
_cell_length_c   12.71140000
_cell_angle_alpha   90.00000000
_cell_angle_beta   90.00000000
_cell_angle_gamma   90.00000000
_symmetry_Int_Tables_number   1
_chemical_formula_structural   Si
_chemical_formula_sum   Si112
_cell_volume   6737.12846599
_cell_formula_units_Z   112
loop_
 _symmetry_equiv_pos_site_id
 _symmetry_equiv_pos_as_xyz
  1  'x, y, z'
loop_
 _atom_site_type_symbol
 _atom_site_label
 _atom_site_symmetry_multiplicity
 _atom_site_fract_x
 _atom_site_fract_y
 _atom_site_fract_z
 _atom_site_occupancy
  Si  Si0  1  0.38098000  0.89481000  0.12165000  1
  Si  Si1  1  0.61902000  0.10519000  0.12165000  1
  Si  Si2  1  0.88098000  0.60519000  0.87835000  1
  Si  Si3  1  0.11902000  0.39481000  0.87835000  1
  Si  Si4  1  0.61902000  0.10519000  0.87835000  1
  Si  Si5  1  0.38098000  0.89481000  0.87835000  1
  Si  Si6  1  0.11902000  0.39481000  0.12165000  1
  Si  Si7  1  0.88098000  0.60519000  0.12165000  1
  Si  Si8  1  0.41832000  0.68976000  0.12191000  1
  Si  Si9  1  0.58168000  0.31024000  0.12191000  1
  Si  Si10  1  0.91832000  0.81024000  0.87809000  1
  Si  Si11  1  0.08168000  0.18976000  0.87809000  1
  Si  Si12  1  0.58168000  0.31024000  0.87809000  1
  Si  Si13  1  0.41832000  0.68976000  0.87809000  1
  Si  Si14  1  0.08168000  0.18976000  0.12191000  1
  Si  Si15  1  0.91832000  0.81024000  0.12191000  1
  Si  Si16  1  0.35489000  0.56473000  0.12136000  1
  Si  Si17  1  0.64511000  0.43527000  0.12136000  1
  Si  Si18  1  0.85489000  0.93527000  0.87864000  1
  Si  Si19  1  0.14511000  0.06473000  0.87864000  1
  Si  Si20  1  0.64511000  0.43527000  0.87864000  1
  Si  Si21  1  0.35489000  0.56473000  0.87864000  1
  Si  Si22  1  0.14511000  0.06473000  0.12136000  1
  Si  Si23  1  0.85489000  0.93527000  0.12136000  1
  Si  Si24  1  0.31724000  0.76960000  0.12104000  1
  Si  Si25  1  0.68276000  0.23040000  0.12104000  1
  Si  Si26  1  0.81724000  0.73040000  0.87896000  1
  Si  Si27  1  0.18276000  0.26960000  0.87896000  1
  Si  Si28  1  0.68276000  0.23040000  0.87896000  1
  Si  Si29  1  0.31724000  0.76960000  0.87896000  1
  Si  Si30  1  0.18276000  0.26960000  0.12104000  1
  Si  Si31  1  0.81724000  0.73040000  0.12104000  1
  Si  Si32  1  0.35123000  0.40666000  0.30601000  1
  Si  Si33  1  0.64877000  0.59334000  0.30601000  1
  Si  Si34  1  0.85123000  0.09334000  0.69399000  1
  Si  Si35  1  0.14877000  0.90666000  0.69399000  1
  Si  Si36  1  0.64877000  0.59334000  0.69399000  1
  Si  Si37  1  0.35123000  0.40666000  0.69399000  1
  Si  Si38  1  0.14877000  0.90666000  0.30601000  1
  Si  Si39  1  0.85123000  0.09334000  0.30601000  1
  Si  Si40  1  0.37983000  0.04741000  0.30841000  1
  Si  Si41  1  0.62017000  0.95259000  0.30841000  1
  Si  Si42  1  0.87983000  0.45259000  0.69159000  1
  Si  Si43  1  0.12017000  0.54741000  0.69159000  1
  Si  Si44  1  0.62017000  0.95259000  0.69159000  1
  Si  Si45  1  0.37983000  0.04741000  0.69159000  1
  Si  Si46  1  0.12017000  0.54741000  0.30841000  1
  Si  Si47  1  0.87983000  0.45259000  0.30841000  1
  Si  Si48  1  0.27773000  0.84534000  0.30812000  1
  Si  Si49  1  0.72227000  0.15466000  0.30812000  1
  Si  Si50  1  0.77773000  0.65466000  0.69188000  1
  Si  Si51  1  0.22227000  0.34534000  0.69188000  1
  Si  Si52  1  0.72227000  0.15466000  0.69188000  1
  Si  Si53  1  0.27773000  0.84534000  0.69188000  1
  Si  Si54  1  0.22227000  0.34534000  0.30812000  1
  Si  Si55  1  0.77773000  0.65466000  0.30812000  1
  Si  Si56  1  0.46060000  0.61828000  0.30707000  1
  Si  Si57  1  0.53940000  0.38172000  0.30707000  1
  Si  Si58  1  0.96060000  0.88172000  0.69293000  1
  Si  Si59  1  0.03940000  0.11828000  0.69293000  1
  Si  Si60  1  0.53940000  0.38172000  0.69293000  1
  Si  Si61  1  0.46060000  0.61828000  0.69293000  1
  Si  Si62  1  0.03940000  0.11828000  0.30707000  1
  Si  Si63  1  0.96060000  0.88172000  0.30707000  1
  Si  Si64  1  0.29113000  0.28790000  0.38006000  1
  Si  Si65  1  0.70887000  0.71210000  0.38006000  1
  Si  Si66  1  0.79113000  0.21210000  0.61994000  1
  Si  Si67  1  0.20887000  0.78790000  0.61994000  1
  Si  Si68  1  0.70887000  0.71210000  0.61994000  1
  Si  Si69  1  0.29113000  0.28790000  0.61994000  1
  Si  Si70  1  0.20887000  0.78790000  0.38006000  1
  Si  Si71  1  0.79113000  0.21210000  0.38006000  1
  Si  Si72  1  0.30903000  0.05610000  0.37992000  1
  Si  Si73  1  0.69097000  0.94390000  0.37992000  1
  Si  Si74  1  0.80903000  0.44390000  0.62008000  1
  Si  Si75  1  0.19097000  0.55610000  0.62008000  1
  Si  Si76  1  0.69097000  0.94390000  0.62008000  1
  Si  Si77  1  0.30903000  0.05610000  0.62008000  1
  Si  Si78  1  0.19097000  0.55610000  0.37992000  1
  Si  Si79  1  0.80903000  0.44390000  0.37992000  1
  Si  Si80  1  0.40655000  0.26351000  0.37907000  1
  Si  Si81  1  0.59345000  0.73649000  0.37907000  1
  Si  Si82  1  0.90655000  0.23649000  0.62093000  1
  Si  Si83  1  0.09345000  0.76351000  0.62093000  1
  Si  Si84  1  0.59345000  0.73649000  0.62093000  1
  Si  Si85  1  0.40655000  0.26351000  0.62093000  1
  Si  Si86  1  0.09345000  0.76351000  0.37907000  1
  Si  Si87  1  0.90655000  0.23649000  0.37907000  1
  Si  Si88  1  0.46911000  0.39215000  0.37896000  1
  Si  Si89  1  0.53089000  0.60785000  0.37896000  1
  Si  Si90  1  0.96911000  0.10785000  0.62104000  1
  Si  Si91  1  0.03089000  0.89215000  0.62104000  1
  Si  Si92  1  0.53089000  0.60785000  0.62104000  1
  Si  Si93  1  0.46911000  0.39215000  0.62104000  1
  Si  Si94  1  0.03089000  0.89215000  0.37896000  1
  Si  Si95  1  0.96911000  0.10785000  0.37896000  1
  Si  Si96  1  0.37875000  0.89689000  0.50000000  1
  Si  Si97  1  0.62125000  0.10311000  0.50000000  1
  Si  Si98  1  0.87875000  0.60311000  0.50000000  1
  Si  Si99  1  0.12125000  0.39689000  0.50000000  1
  Si  Si100  1  0.41874000  0.68085000  0.50000000  1
  Si  Si101  1  0.58126000  0.31915000  0.50000000  1
  Si  Si102  1  0.91874000  0.81915000  0.50000000  1
  Si  Si103  1  0.08126000  0.18085000  0.50000000  1
  Si  Si104  1  0.35740000  0.55874000  0.50000000  1
  Si  Si105  1  0.64260000  0.44126000  0.50000000  1
  Si  Si106  1  0.85740000  0.94126000  0.50000000  1
  Si  Si107  1  0.14260000  0.05874000  0.50000000  1
  Si  Si108  1  0.31738000  0.77473000  0.50000000  1
  Si  Si109  1  0.68262000  0.22527000  0.50000000  1
  Si  Si110  1  0.81738000  0.72527000  0.50000000  1
  Si  Si111  1  0.18262000  0.27473000  0.50000000  1
