# generated using pymatgen
data_O2
_symmetry_space_group_name_H-M   'P 1'
_cell_length_a   41.69080000
_cell_length_b   12.71280000
_cell_length_c   12.71140000
_cell_angle_alpha   90.00000000
_cell_angle_beta   90.00000000
_cell_angle_gamma   90.00000000
_symmetry_Int_Tables_number   1
_chemical_formula_structural   O2
_chemical_formula_sum   O224
_cell_volume   6737.12846599
_cell_formula_units_Z   112
loop_
 _symmetry_equiv_pos_site_id
 _symmetry_equiv_pos_as_xyz
  1  'x, y, z'
loop_
 _atom_site_type_symbol
 _atom_site_label
 _atom_site_symmetry_multiplicity
 _atom_site_fract_x
 _atom_site_fract_y
 _atom_site_fract_z
 _atom_site_occupancy
  O  O0  1  0.40987000  0.81231000  0.13818000  1
  O  O1  1  0.59013000  0.18769000  0.13818000  1
  O  O2  1  0.90987000  0.68769000  0.86182000  1
  O  O3  1  0.09013000  0.31231000  0.86182000  1
  O  O4  1  0.59013000  0.18769000  0.86182000  1
  O  O5  1  0.40987000  0.81231000  0.86182000  1
  O  O6  1  0.09013000  0.31231000  0.13818000  1
  O  O7  1  0.90987000  0.68769000  0.13818000  1
  O  O8  1  0.37941000  0.92962000  0.00000000  1
  O  O9  1  0.62059000  0.07038000  0.00000000  1
  O  O10  1  0.87941000  0.57038000  0.00000000  1
  O  O11  1  0.12059000  0.42962000  0.00000000  1
  O  O12  1  0.34768000  0.83983000  0.15467000  1
  O  O13  1  0.65232000  0.16017000  0.15467000  1
  O  O14  1  0.84768000  0.66017000  0.84533000  1
  O  O15  1  0.15232000  0.33983000  0.84533000  1
  O  O16  1  0.65232000  0.16017000  0.84533000  1
  O  O17  1  0.34768000  0.83983000  0.84533000  1
  O  O18  1  0.15232000  0.33983000  0.15467000  1
  O  O19  1  0.84768000  0.66017000  0.15467000  1
  O  O20  1  0.38635000  0.99725000  0.19407000  1
  O  O21  1  0.61365000  0.00275000  0.19407000  1
  O  O22  1  0.88635000  0.50275000  0.80593000  1
  O  O23  1  0.11365000  0.49725000  0.80593000  1
  O  O24  1  0.61365000  0.00275000  0.80593000  1
  O  O25  1  0.38635000  0.99725000  0.80593000  1
  O  O26  1  0.11365000  0.49725000  0.19407000  1
  O  O27  1  0.88635000  0.50275000  0.19407000  1
  O  O28  1  0.42640000  0.66805000  0.00000000  1
  O  O29  1  0.57360000  0.33195000  0.00000000  1
  O  O30  1  0.92640000  0.83195000  0.00000000  1
  O  O31  1  0.07360000  0.16805000  0.00000000  1
  O  O32  1  0.38797000  0.61962000  0.15678000  1
  O  O33  1  0.61203000  0.38038000  0.15678000  1
  O  O34  1  0.88797000  0.88038000  0.84322000  1
  O  O35  1  0.11203000  0.11962000  0.84322000  1
  O  O36  1  0.61203000  0.38038000  0.84322000  1
  O  O37  1  0.38797000  0.61962000  0.84322000  1
  O  O38  1  0.11203000  0.11962000  0.15678000  1
  O  O39  1  0.88797000  0.88038000  0.15678000  1
  O  O40  1  0.44871000  0.65746000  0.19311000  1
  O  O41  1  0.55129000  0.34254000  0.19311000  1
  O  O42  1  0.94871000  0.84254000  0.80689000  1
  O  O43  1  0.05129000  0.15746000  0.80689000  1
  O  O44  1  0.55129000  0.34254000  0.80689000  1
  O  O45  1  0.44871000  0.65746000  0.80689000  1
  O  O46  1  0.05129000  0.15746000  0.19311000  1
  O  O47  1  0.94871000  0.84254000  0.19311000  1
  O  O48  1  0.35745000  0.52960000  0.00000000  1
  O  O49  1  0.64255000  0.47040000  0.00000000  1
  O  O50  1  0.85745000  0.97040000  0.00000000  1
  O  O51  1  0.14255000  0.02960000  0.00000000  1
  O  O52  1  0.32581000  0.64693000  0.13527000  1
  O  O53  1  0.67419000  0.35307000  0.13527000  1
  O  O54  1  0.82581000  0.85307000  0.86473000  1
  O  O55  1  0.17419000  0.14693000  0.86473000  1
  O  O56  1  0.67419000  0.35307000  0.86473000  1
  O  O57  1  0.32581000  0.64693000  0.86473000  1
  O  O58  1  0.17419000  0.14693000  0.13527000  1
  O  O59  1  0.82581000  0.85307000  0.13527000  1
  O  O60  1  0.34850000  0.46212000  0.19253000  1
  O  O61  1  0.65150000  0.53788000  0.19253000  1
  O  O62  1  0.84850000  0.03788000  0.80747000  1
  O  O63  1  0.15150000  0.96212000  0.80747000  1
  O  O64  1  0.65150000  0.53788000  0.80747000  1
  O  O65  1  0.34850000  0.46212000  0.80747000  1
  O  O66  1  0.15150000  0.96212000  0.19253000  1
  O  O67  1  0.84850000  0.03788000  0.19253000  1
  O  O68  1  0.30838000  0.79279000  0.00000000  1
  O  O69  1  0.69162000  0.20721000  0.00000000  1
  O  O70  1  0.80838000  0.70721000  0.00000000  1
  O  O71  1  0.19162000  0.29279000  0.00000000  1
  O  O72  1  0.28702000  0.79979000  0.19391000  1
  O  O73  1  0.71298000  0.20021000  0.19391000  1
  O  O74  1  0.78702000  0.70021000  0.80609000  1
  O  O75  1  0.21298000  0.29979000  0.80609000  1
  O  O76  1  0.71298000  0.20021000  0.80609000  1
  O  O77  1  0.28702000  0.79979000  0.80609000  1
  O  O78  1  0.21298000  0.29979000  0.19391000  1
  O  O79  1  0.78702000  0.70021000  0.19391000  1
  O  O80  1  0.39710000  0.78558000  0.50000000  1
  O  O81  1  0.60290000  0.21442000  0.50000000  1
  O  O82  1  0.89710000  0.71442000  0.50000000  1
  O  O83  1  0.10290000  0.28558000  0.50000000  1
  O  O84  1  0.34065000  0.87591000  0.50000000  1
  O  O85  1  0.65935000  0.12409000  0.50000000  1
  O  O86  1  0.84065000  0.62409000  0.50000000  1
  O  O87  1  0.15935000  0.37591000  0.50000000  1
  O  O88  1  0.38905000  0.96182000  0.39671000  1
  O  O89  1  0.61095000  0.03818000  0.39671000  1
  O  O90  1  0.88905000  0.53818000  0.60329000  1
  O  O91  1  0.11095000  0.46182000  0.60329000  1
  O  O92  1  0.61095000  0.03818000  0.60329000  1
  O  O93  1  0.38905000  0.96182000  0.60329000  1
  O  O94  1  0.11095000  0.46182000  0.39671000  1
  O  O95  1  0.88905000  0.53818000  0.39671000  1
  O  O96  1  0.39551000  0.57961000  0.50000000  1
  O  O97  1  0.60449000  0.42039000  0.50000000  1
  O  O98  1  0.89551000  0.92039000  0.50000000  1
  O  O99  1  0.10449000  0.07961000  0.50000000  1
  O  O100  1  0.44097000  0.68061000  0.39654000  1
  O  O101  1  0.55903000  0.31939000  0.39654000  1
  O  O102  1  0.94097000  0.81939000  0.60346000  1
  O  O103  1  0.05903000  0.18061000  0.60346000  1
  O  O104  1  0.55903000  0.31939000  0.60346000  1
  O  O105  1  0.44097000  0.68061000  0.60346000  1
  O  O106  1  0.05903000  0.18061000  0.39654000  1
  O  O107  1  0.94097000  0.81939000  0.39654000  1
  O  O108  1  0.33903000  0.67002000  0.50000000  1
  O  O109  1  0.66097000  0.32998000  0.50000000  1
  O  O110  1  0.83903000  0.82998000  0.50000000  1
  O  O111  1  0.16097000  0.17002000  0.50000000  1
  O  O112  1  0.34717000  0.49410000  0.39652000  1
  O  O113  1  0.65283000  0.50590000  0.39652000  1
  O  O114  1  0.84717000  0.00590000  0.60348000  1
  O  O115  1  0.15283000  0.99410000  0.60348000  1
  O  O116  1  0.65283000  0.50590000  0.60348000  1
  O  O117  1  0.34717000  0.49410000  0.60348000  1
  O  O118  1  0.15283000  0.99410000  0.39652000  1
  O  O119  1  0.84717000  0.00590000  0.39652000  1
  O  O120  1  0.29502000  0.77495000  0.39679000  1
  O  O121  1  0.70498000  0.22505000  0.39679000  1
  O  O122  1  0.79502000  0.72505000  0.60321000  1
  O  O123  1  0.20498000  0.27495000  0.60321000  1
  O  O124  1  0.70498000  0.22505000  0.60321000  1
  O  O125  1  0.29502000  0.77495000  0.60321000  1
  O  O126  1  0.20498000  0.27495000  0.39679000  1
  O  O127  1  0.79502000  0.72505000  0.39679000  1
  O  O128  1  0.32326000  0.32012000  0.31767000  1
  O  O129  1  0.67674000  0.67988000  0.31767000  1
  O  O130  1  0.82326000  0.17988000  0.68233000  1
  O  O131  1  0.17674000  0.82012000  0.68233000  1
  O  O132  1  0.67674000  0.67988000  0.68233000  1
  O  O133  1  0.32326000  0.32012000  0.68233000  1
  O  O134  1  0.17674000  0.82012000  0.31767000  1
  O  O135  1  0.82326000  0.17988000  0.31767000  1
  O  O136  1  0.38563000  0.35040000  0.31754000  1
  O  O137  1  0.61437000  0.64960000  0.31754000  1
  O  O138  1  0.88563000  0.14960000  0.68246000  1
  O  O139  1  0.11437000  0.85040000  0.68246000  1
  O  O140  1  0.61437000  0.64960000  0.68246000  1
  O  O141  1  0.38563000  0.35040000  0.68246000  1
  O  O142  1  0.11437000  0.85040000  0.31754000  1
  O  O143  1  0.88563000  0.14960000  0.31754000  1
  O  O144  1  0.34255000  0.07798000  0.32094000  1
  O  O145  1  0.65745000  0.92202000  0.32094000  1
  O  O146  1  0.84255000  0.42202000  0.67906000  1
  O  O147  1  0.15745000  0.57798000  0.67906000  1
  O  O148  1  0.65745000  0.92202000  0.67906000  1
  O  O149  1  0.34255000  0.07798000  0.67906000  1
  O  O150  1  0.15745000  0.57798000  0.32094000  1
  O  O151  1  0.84255000  0.42202000  0.32094000  1
  O  O152  1  0.40168000  0.15069000  0.32381000  1
  O  O153  1  0.59832000  0.84931000  0.32381000  1
  O  O154  1  0.90168000  0.34931000  0.67619000  1
  O  O155  1  0.09832000  0.65069000  0.67619000  1
  O  O156  1  0.59832000  0.84931000  0.67619000  1
  O  O157  1  0.40168000  0.15069000  0.67619000  1
  O  O158  1  0.09832000  0.65069000  0.32381000  1
  O  O159  1  0.90168000  0.34931000  0.32381000  1
  O  O160  1  0.23945000  0.84063000  0.32354000  1
  O  O161  1  0.76055000  0.15937000  0.32354000  1
  O  O162  1  0.73945000  0.65937000  0.67646000  1
  O  O163  1  0.26055000  0.34063000  0.67646000  1
  O  O164  1  0.76055000  0.15937000  0.67646000  1
  O  O165  1  0.23945000  0.84063000  0.67646000  1
  O  O166  1  0.26055000  0.34063000  0.32354000  1
  O  O167  1  0.73945000  0.65937000  0.32354000  1
  O  O168  1  0.28985000  0.96509000  0.31835000  1
  O  O169  1  0.71015000  0.03491000  0.31835000  1
  O  O170  1  0.78985000  0.53491000  0.68165000  1
  O  O171  1  0.21015000  0.46509000  0.68165000  1
  O  O172  1  0.71015000  0.03491000  0.68165000  1
  O  O173  1  0.28985000  0.96509000  0.68165000  1
  O  O174  1  0.21015000  0.46509000  0.31835000  1
  O  O175  1  0.78985000  0.53491000  0.31835000  1
  O  O176  1  0.45455000  0.49387000  0.32044000  1
  O  O177  1  0.54545000  0.50613000  0.32044000  1
  O  O178  1  0.95455000  0.00613000  0.67956000  1
  O  O179  1  0.04545000  0.99387000  0.67956000  1
  O  O180  1  0.54545000  0.50613000  0.67956000  1
  O  O181  1  0.45455000  0.49387000  0.67956000  1
  O  O182  1  0.04545000  0.99387000  0.32044000  1
  O  O183  1  0.95455000  0.00613000  0.32044000  1
  O  O184  1  0.49827000  0.64257000  0.32064000  1
  O  O185  1  0.50173000  0.35743000  0.32064000  1
  O  O186  1  0.99827000  0.85743000  0.67936000  1
  O  O187  1  0.00173000  0.14257000  0.67936000  1
  O  O188  1  0.50173000  0.35743000  0.67936000  1
  O  O189  1  0.49827000  0.64257000  0.67936000  1
  O  O190  1  0.00173000  0.14257000  0.32064000  1
  O  O191  1  0.99827000  0.85743000  0.32064000  1
  O  O192  1  0.29338000  0.32801000  0.50000000  1
  O  O193  1  0.70662000  0.67199000  0.50000000  1
  O  O194  1  0.79338000  0.17199000  0.50000000  1
  O  O195  1  0.20662000  0.82801000  0.50000000  1
  O  O196  1  0.28770000  0.16174000  0.37889000  1
  O  O197  1  0.71230000  0.83826000  0.37889000  1
  O  O198  1  0.78770000  0.33826000  0.62111000  1
  O  O199  1  0.21230000  0.66174000  0.62111000  1
  O  O200  1  0.71230000  0.83826000  0.62111000  1
  O  O201  1  0.28770000  0.16174000  0.62111000  1
  O  O202  1  0.21230000  0.66174000  0.37889000  1
  O  O203  1  0.78770000  0.33826000  0.37889000  1
  O  O204  1  0.31541000  0.02150000  0.50000000  1
  O  O205  1  0.68459000  0.97850000  0.50000000  1
  O  O206  1  0.81541000  0.47850000  0.50000000  1
  O  O207  1  0.18459000  0.52150000  0.50000000  1
  O  O208  1  0.39521000  0.25749000  0.50000000  1
  O  O209  1  0.60479000  0.74251000  0.50000000  1
  O  O210  1  0.89521000  0.24251000  0.50000000  1
  O  O211  1  0.10479000  0.75749000  0.50000000  1
  O  O212  1  0.44379000  0.29664000  0.37406000  1
  O  O213  1  0.55621000  0.70336000  0.37406000  1
  O  O214  1  0.94379000  0.20336000  0.62594000  1
  O  O215  1  0.05621000  0.79664000  0.62594000  1
  O  O216  1  0.55621000  0.70336000  0.62594000  1
  O  O217  1  0.44379000  0.29664000  0.62594000  1
  O  O218  1  0.05621000  0.79664000  0.37406000  1
  O  O219  1  0.94379000  0.20336000  0.37406000  1
  O  O220  1  0.47662000  0.42025000  0.50000000  1
  O  O221  1  0.52338000  0.57975000  0.50000000  1
  O  O222  1  0.97662000  0.07975000  0.50000000  1
  O  O223  1  0.02338000  0.92025000  0.50000000  1
