# generated using pymatgen
data_Si
_symmetry_space_group_name_H-M   'P 1'
_cell_length_a   9.76400000
_cell_length_b   25.61400000
_cell_length_c   8.32700000
_cell_angle_alpha   90.00000000
_cell_angle_beta   90.00000000
_cell_angle_gamma   90.00000000
_symmetry_Int_Tables_number   1
_chemical_formula_structural   Si
_chemical_formula_sum   Si40
_cell_volume   2082.54186439
_cell_formula_units_Z   40
loop_
 _symmetry_equiv_pos_site_id
 _symmetry_equiv_pos_as_xyz
  1  'x, y, z'
loop_
 _atom_site_type_symbol
 _atom_site_label
 _atom_site_symmetry_multiplicity
 _atom_site_fract_x
 _atom_site_fract_y
 _atom_site_fract_z
 _atom_site_occupancy
  Si  Si0  1  0.20400000  0.35670000  0.06140000  1
  Si  Si1  1  0.70400000  0.85670000  0.06140000  1
  Si  Si2  1  0.79600000  0.35670000  0.06140000  1
  Si  Si3  1  0.29600000  0.85670000  0.06140000  1
  Si  Si4  1  0.20400000  0.64330000  0.56140000  1
  Si  Si5  1  0.70400000  0.14330000  0.56140000  1
  Si  Si6  1  0.79600000  0.64330000  0.56140000  1
  Si  Si7  1  0.29600000  0.14330000  0.56140000  1
  Si  Si8  1  0.79600000  0.64330000  0.93860000  1
  Si  Si9  1  0.29600000  0.14330000  0.93860000  1
  Si  Si10  1  0.20400000  0.64330000  0.93860000  1
  Si  Si11  1  0.70400000  0.14330000  0.93860000  1
  Si  Si12  1  0.79600000  0.35670000  0.43860000  1
  Si  Si13  1  0.29600000  0.85670000  0.43860000  1
  Si  Si14  1  0.20400000  0.35670000  0.43860000  1
  Si  Si15  1  0.70400000  0.85670000  0.43860000  1
  Si  Si16  1  0.50000000  0.05990000  0.05710000  1
  Si  Si17  1  0.00000000  0.55990000  0.05710000  1
  Si  Si18  1  0.50000000  0.94010000  0.55710000  1
  Si  Si19  1  0.00000000  0.44010000  0.55710000  1
  Si  Si20  1  0.50000000  0.94010000  0.94290000  1
  Si  Si21  1  0.00000000  0.44010000  0.94290000  1
  Si  Si22  1  0.50000000  0.05990000  0.44290000  1
  Si  Si23  1  0.00000000  0.55990000  0.44290000  1
  Si  Si24  1  0.50000000  0.22500000  0.06810000  1
  Si  Si25  1  0.00000000  0.72500000  0.06810000  1
  Si  Si26  1  0.50000000  0.77500000  0.56810000  1
  Si  Si27  1  0.00000000  0.27500000  0.56810000  1
  Si  Si28  1  0.50000000  0.77500000  0.93190000  1
  Si  Si29  1  0.00000000  0.27500000  0.93190000  1
  Si  Si30  1  0.50000000  0.22500000  0.43190000  1
  Si  Si31  1  0.00000000  0.72500000  0.43190000  1
  Si  Si32  1  0.00000000  0.16360000  0.06470000  1
  Si  Si33  1  0.50000000  0.66360000  0.06470000  1
  Si  Si34  1  0.00000000  0.83640000  0.56470000  1
  Si  Si35  1  0.50000000  0.33640000  0.56470000  1
  Si  Si36  1  0.00000000  0.83640000  0.93530000  1
  Si  Si37  1  0.50000000  0.33640000  0.93530000  1
  Si  Si38  1  0.00000000  0.16360000  0.43530000  1
  Si  Si39  1  0.50000000  0.66360000  0.43530000  1
