# generated using pymatgen
data_O2
_symmetry_space_group_name_H-M   'P 1'
_cell_length_a   9.76400000
_cell_length_b   25.61400000
_cell_length_c   8.32700000
_cell_angle_alpha   90.00000000
_cell_angle_beta   90.00000000
_cell_angle_gamma   90.00000000
_symmetry_Int_Tables_number   1
_chemical_formula_structural   O2
_chemical_formula_sum   O80
_cell_volume   2082.54186439
_cell_formula_units_Z   40
loop_
 _symmetry_equiv_pos_site_id
 _symmetry_equiv_pos_as_xyz
  1  'x, y, z'
loop_
 _atom_site_type_symbol
 _atom_site_label
 _atom_site_symmetry_multiplicity
 _atom_site_fract_x
 _atom_site_fract_y
 _atom_site_fract_z
 _atom_site_occupancy
  O  O0  1  0.18060000  0.34640000  0.25000000  1
  O  O1  1  0.68060000  0.84640000  0.25000000  1
  O  O2  1  0.81940000  0.34640000  0.25000000  1
  O  O3  1  0.31940000  0.84640000  0.25000000  1
  O  O4  1  0.18060000  0.65360000  0.75000000  1
  O  O5  1  0.68060000  0.15360000  0.75000000  1
  O  O6  1  0.81940000  0.65360000  0.75000000  1
  O  O7  1  0.31940000  0.15360000  0.75000000  1
  O  O8  1  0.36550000  0.35880000  0.02330000  1
  O  O9  1  0.86550000  0.85880000  0.02330000  1
  O  O10  1  0.63450000  0.35880000  0.02330000  1
  O  O11  1  0.13450000  0.85880000  0.02330000  1
  O  O12  1  0.36550000  0.64120000  0.52330000  1
  O  O13  1  0.86550000  0.14120000  0.52330000  1
  O  O14  1  0.63450000  0.64120000  0.52330000  1
  O  O15  1  0.13450000  0.14120000  0.52330000  1
  O  O16  1  0.63450000  0.64120000  0.97670000  1
  O  O17  1  0.13450000  0.14120000  0.97670000  1
  O  O18  1  0.36550000  0.64120000  0.97670000  1
  O  O19  1  0.86550000  0.14120000  0.97670000  1
  O  O20  1  0.63450000  0.35880000  0.47670000  1
  O  O21  1  0.13450000  0.85880000  0.47670000  1
  O  O22  1  0.36550000  0.35880000  0.47670000  1
  O  O23  1  0.86550000  0.85880000  0.47670000  1
  O  O24  1  0.13470000  0.31000000  0.96040000  1
  O  O25  1  0.63470000  0.81000000  0.96040000  1
  O  O26  1  0.86530000  0.31000000  0.96040000  1
  O  O27  1  0.36530000  0.81000000  0.96040000  1
  O  O28  1  0.13470000  0.69000000  0.46040000  1
  O  O29  1  0.63470000  0.19000000  0.46040000  1
  O  O30  1  0.86530000  0.69000000  0.46040000  1
  O  O31  1  0.36530000  0.19000000  0.46040000  1
  O  O32  1  0.86530000  0.69000000  0.03960000  1
  O  O33  1  0.36530000  0.19000000  0.03960000  1
  O  O34  1  0.13470000  0.69000000  0.03960000  1
  O  O35  1  0.63470000  0.19000000  0.03960000  1
  O  O36  1  0.86530000  0.31000000  0.53960000  1
  O  O37  1  0.36530000  0.81000000  0.53960000  1
  O  O38  1  0.13470000  0.31000000  0.53960000  1
  O  O39  1  0.63470000  0.81000000  0.53960000  1
  O  O40  1  0.13460000  0.41130000  0.01130000  1
  O  O41  1  0.63460000  0.91130000  0.01130000  1
  O  O42  1  0.86540000  0.41130000  0.01130000  1
  O  O43  1  0.36540000  0.91130000  0.01130000  1
  O  O44  1  0.13460000  0.58870000  0.51130000  1
  O  O45  1  0.63460000  0.08870000  0.51130000  1
  O  O46  1  0.86540000  0.58870000  0.51130000  1
  O  O47  1  0.36540000  0.08870000  0.51130000  1
  O  O48  1  0.86540000  0.58870000  0.98870000  1
  O  O49  1  0.36540000  0.08870000  0.98870000  1
  O  O50  1  0.13460000  0.58870000  0.98870000  1
  O  O51  1  0.63460000  0.08870000  0.98870000  1
  O  O52  1  0.86540000  0.41130000  0.48870000  1
  O  O53  1  0.36540000  0.91130000  0.48870000  1
  O  O54  1  0.13460000  0.41130000  0.48870000  1
  O  O55  1  0.63460000  0.91130000  0.48870000  1
  O  O56  1  0.50000000  0.00000000  0.00000000  1
  O  O57  1  0.00000000  0.50000000  0.00000000  1
  O  O58  1  0.50000000  0.00000000  0.50000000  1
  O  O59  1  0.00000000  0.50000000  0.50000000  1
  O  O60  1  0.50000000  0.06280000  0.25000000  1
  O  O61  1  0.00000000  0.56280000  0.25000000  1
  O  O62  1  0.50000000  0.93720000  0.75000000  1
  O  O63  1  0.00000000  0.43720000  0.75000000  1
  O  O64  1  0.50000000  0.24640000  0.25000000  1
  O  O65  1  0.00000000  0.74640000  0.25000000  1
  O  O66  1  0.50000000  0.75360000  0.75000000  1
  O  O67  1  0.00000000  0.25360000  0.75000000  1
  O  O68  1  0.50000000  0.27360000  0.94530000  1
  O  O69  1  0.00000000  0.77360000  0.94530000  1
  O  O70  1  0.50000000  0.72640000  0.44530000  1
  O  O71  1  0.00000000  0.22640000  0.44530000  1
  O  O72  1  0.50000000  0.72640000  0.05470000  1
  O  O73  1  0.00000000  0.22640000  0.05470000  1
  O  O74  1  0.50000000  0.27360000  0.55470000  1
  O  O75  1  0.00000000  0.77360000  0.55470000  1
  O  O76  1  0.00000000  0.14570000  0.25000000  1
  O  O77  1  0.50000000  0.64570000  0.25000000  1
  O  O78  1  0.00000000  0.85430000  0.75000000  1
  O  O79  1  0.50000000  0.35430000  0.75000000  1
