# generated using pymatgen
data_SiO4
_symmetry_space_group_name_H-M   'P 1'
_cell_length_a   26.06000000
_cell_length_b   13.88400000
_cell_length_c   22.86000000
_cell_angle_alpha   90.00000000
_cell_angle_beta   90.00000000
_cell_angle_gamma   90.00000000
_symmetry_Int_Tables_number   1
_chemical_formula_structural   SiO4
_chemical_formula_sum   'Si1 O4'
_cell_volume   8271.13753440
_cell_formula_units_Z   1
loop_
 _symmetry_equiv_pos_site_id
 _symmetry_equiv_pos_as_xyz
  1  'x, y, z'
loop_
 _atom_site_type_symbol
 _atom_site_label
 _atom_site_symmetry_multiplicity
 _atom_site_fract_x
 _atom_site_fract_y
 _atom_site_fract_z
 _atom_site_occupancy
  Si  Si0  1  0.59820000  0.30530000  0.12320000  1
  O  O1  1  0.65210000  0.25410000  0.13730000  1
  O  O2  1  0.59880000  0.40580000  0.15800000  1
  O  O3  1  0.58690000  0.33420000  0.05630000  1
  O  O4  1  0.55060000  0.24500000  0.14900000  1
