# generated using pymatgen
data_O2
_symmetry_space_group_name_H-M   'P 1'
_cell_length_a   26.06000000
_cell_length_b   13.88400000
_cell_length_c   22.86000000
_cell_angle_alpha   90.00000000
_cell_angle_beta   90.00000000
_cell_angle_gamma   90.00000000
_symmetry_Int_Tables_number   1
_chemical_formula_structural   O2
_chemical_formula_sum   O272
_cell_volume   8271.13753440
_cell_formula_units_Z   136
loop_
 _symmetry_equiv_pos_site_id
 _symmetry_equiv_pos_as_xyz
  1  'x, y, z'
loop_
 _atom_site_type_symbol
 _atom_site_label
 _atom_site_symmetry_multiplicity
 _atom_site_fract_x
 _atom_site_fract_y
 _atom_site_fract_z
 _atom_site_occupancy
  O  O0  1  0.34790000  0.25410000  0.86270000  1
  O  O1  1  0.34790000  0.75410000  0.36270000  1
  O  O2  1  0.84790000  0.75410000  0.86270000  1
  O  O3  1  0.84790000  0.25410000  0.36270000  1
  O  O4  1  0.65210000  0.25410000  0.86270000  1
  O  O5  1  0.65210000  0.75410000  0.36270000  1
  O  O6  1  0.15210000  0.75410000  0.86270000  1
  O  O7  1  0.15210000  0.25410000  0.36270000  1
  O  O8  1  0.34790000  0.74590000  0.86270000  1
  O  O9  1  0.34790000  0.24590000  0.36270000  1
  O  O10  1  0.84790000  0.24590000  0.86270000  1
  O  O11  1  0.84790000  0.74590000  0.36270000  1
  O  O12  1  0.65210000  0.74590000  0.86270000  1
  O  O13  1  0.65210000  0.24590000  0.36270000  1
  O  O14  1  0.15210000  0.24590000  0.86270000  1
  O  O15  1  0.15210000  0.74590000  0.36270000  1
  O  O16  1  0.65210000  0.74590000  0.13730000  1
  O  O17  1  0.65210000  0.24590000  0.63730000  1
  O  O18  1  0.15210000  0.24590000  0.13730000  1
  O  O19  1  0.15210000  0.74590000  0.63730000  1
  O  O20  1  0.34790000  0.74590000  0.13730000  1
  O  O21  1  0.34790000  0.24590000  0.63730000  1
  O  O22  1  0.84790000  0.24590000  0.13730000  1
  O  O23  1  0.84790000  0.74590000  0.63730000  1
  O  O24  1  0.65210000  0.25410000  0.13730000  1
  O  O25  1  0.65210000  0.75410000  0.63730000  1
  O  O26  1  0.15210000  0.75410000  0.13730000  1
  O  O27  1  0.15210000  0.25410000  0.63730000  1
  O  O28  1  0.34790000  0.25410000  0.13730000  1
  O  O29  1  0.34790000  0.75410000  0.63730000  1
  O  O30  1  0.84790000  0.75410000  0.13730000  1
  O  O31  1  0.84790000  0.25410000  0.63730000  1
  O  O32  1  0.32010000  0.25000000  0.75000000  1
  O  O33  1  0.32010000  0.75000000  0.25000000  1
  O  O34  1  0.82010000  0.75000000  0.75000000  1
  O  O35  1  0.82010000  0.25000000  0.25000000  1
  O  O36  1  0.67990000  0.25000000  0.75000000  1
  O  O37  1  0.67990000  0.75000000  0.25000000  1
  O  O38  1  0.17990000  0.75000000  0.75000000  1
  O  O39  1  0.17990000  0.25000000  0.25000000  1
  O  O40  1  0.32010000  0.75000000  0.75000000  1
  O  O41  1  0.32010000  0.25000000  0.25000000  1
  O  O42  1  0.82010000  0.25000000  0.75000000  1
  O  O43  1  0.82010000  0.75000000  0.25000000  1
  O  O44  1  0.67990000  0.75000000  0.75000000  1
  O  O45  1  0.67990000  0.25000000  0.25000000  1
  O  O46  1  0.17990000  0.25000000  0.75000000  1
  O  O47  1  0.17990000  0.75000000  0.25000000  1
  O  O48  1  0.25000000  0.25000000  0.83200000  1
  O  O49  1  0.25000000  0.75000000  0.33200000  1
  O  O50  1  0.75000000  0.75000000  0.83200000  1
  O  O51  1  0.75000000  0.25000000  0.33200000  1
  O  O52  1  0.75000000  0.25000000  0.83200000  1
  O  O53  1  0.75000000  0.75000000  0.33200000  1
  O  O54  1  0.25000000  0.75000000  0.83200000  1
  O  O55  1  0.25000000  0.25000000  0.33200000  1
  O  O56  1  0.75000000  0.75000000  0.16800000  1
  O  O57  1  0.75000000  0.25000000  0.66800000  1
  O  O58  1  0.25000000  0.25000000  0.16800000  1
  O  O59  1  0.25000000  0.75000000  0.66800000  1
  O  O60  1  0.25000000  0.75000000  0.16800000  1
  O  O61  1  0.25000000  0.25000000  0.66800000  1
  O  O62  1  0.75000000  0.25000000  0.16800000  1
  O  O63  1  0.75000000  0.75000000  0.66800000  1
  O  O64  1  0.30810000  0.09750000  0.82180000  1
  O  O65  1  0.30810000  0.59750000  0.32180000  1
  O  O66  1  0.80810000  0.59750000  0.82180000  1
  O  O67  1  0.80810000  0.09750000  0.32180000  1
  O  O68  1  0.69190000  0.09750000  0.82180000  1
  O  O69  1  0.69190000  0.59750000  0.32180000  1
  O  O70  1  0.19190000  0.59750000  0.82180000  1
  O  O71  1  0.19190000  0.09750000  0.32180000  1
  O  O72  1  0.30810000  0.90250000  0.82180000  1
  O  O73  1  0.30810000  0.40250000  0.32180000  1
  O  O74  1  0.80810000  0.40250000  0.82180000  1
  O  O75  1  0.80810000  0.90250000  0.32180000  1
  O  O76  1  0.69190000  0.90250000  0.82180000  1
  O  O77  1  0.69190000  0.40250000  0.32180000  1
  O  O78  1  0.19190000  0.40250000  0.82180000  1
  O  O79  1  0.19190000  0.90250000  0.32180000  1
  O  O80  1  0.69190000  0.90250000  0.17820000  1
  O  O81  1  0.69190000  0.40250000  0.67820000  1
  O  O82  1  0.19190000  0.40250000  0.17820000  1
  O  O83  1  0.19190000  0.90250000  0.67820000  1
  O  O84  1  0.30810000  0.90250000  0.17820000  1
  O  O85  1  0.30810000  0.40250000  0.67820000  1
  O  O86  1  0.80810000  0.40250000  0.17820000  1
  O  O87  1  0.80810000  0.90250000  0.67820000  1
  O  O88  1  0.69190000  0.09750000  0.17820000  1
  O  O89  1  0.69190000  0.59750000  0.67820000  1
  O  O90  1  0.19190000  0.59750000  0.17820000  1
  O  O91  1  0.19190000  0.09750000  0.67820000  1
  O  O92  1  0.30810000  0.09750000  0.17820000  1
  O  O93  1  0.30810000  0.59750000  0.67820000  1
  O  O94  1  0.80810000  0.59750000  0.17820000  1
  O  O95  1  0.80810000  0.09750000  0.67820000  1
  O  O96  1  0.59880000  0.40580000  0.84200000  1
  O  O97  1  0.59880000  0.90580000  0.34200000  1
  O  O98  1  0.09880000  0.90580000  0.84200000  1
  O  O99  1  0.09880000  0.40580000  0.34200000  1
  O  O100  1  0.40120000  0.40580000  0.84200000  1
  O  O101  1  0.40120000  0.90580000  0.34200000  1
  O  O102  1  0.90120000  0.90580000  0.84200000  1
  O  O103  1  0.90120000  0.40580000  0.34200000  1
  O  O104  1  0.59880000  0.59420000  0.84200000  1
  O  O105  1  0.59880000  0.09420000  0.34200000  1
  O  O106  1  0.09880000  0.09420000  0.84200000  1
  O  O107  1  0.09880000  0.59420000  0.34200000  1
  O  O108  1  0.40120000  0.59420000  0.84200000  1
  O  O109  1  0.40120000  0.09420000  0.34200000  1
  O  O110  1  0.90120000  0.09420000  0.84200000  1
  O  O111  1  0.90120000  0.59420000  0.34200000  1
  O  O112  1  0.40120000  0.59420000  0.15800000  1
  O  O113  1  0.40120000  0.09420000  0.65800000  1
  O  O114  1  0.90120000  0.09420000  0.15800000  1
  O  O115  1  0.90120000  0.59420000  0.65800000  1
  O  O116  1  0.59880000  0.59420000  0.15800000  1
  O  O117  1  0.59880000  0.09420000  0.65800000  1
  O  O118  1  0.09880000  0.09420000  0.15800000  1
  O  O119  1  0.09880000  0.59420000  0.65800000  1
  O  O120  1  0.40120000  0.40580000  0.15800000  1
  O  O121  1  0.40120000  0.90580000  0.65800000  1
  O  O122  1  0.90120000  0.90580000  0.15800000  1
  O  O123  1  0.90120000  0.40580000  0.65800000  1
  O  O124  1  0.59880000  0.40580000  0.15800000  1
  O  O125  1  0.59880000  0.90580000  0.65800000  1
  O  O126  1  0.09880000  0.90580000  0.15800000  1
  O  O127  1  0.09880000  0.40580000  0.65800000  1
  O  O128  1  0.58690000  0.33420000  0.94370000  1
  O  O129  1  0.58690000  0.83420000  0.44370000  1
  O  O130  1  0.08690000  0.83420000  0.94370000  1
  O  O131  1  0.08690000  0.33420000  0.44370000  1
  O  O132  1  0.41310000  0.33420000  0.94370000  1
  O  O133  1  0.41310000  0.83420000  0.44370000  1
  O  O134  1  0.91310000  0.83420000  0.94370000  1
  O  O135  1  0.91310000  0.33420000  0.44370000  1
  O  O136  1  0.58690000  0.66580000  0.94370000  1
  O  O137  1  0.58690000  0.16580000  0.44370000  1
  O  O138  1  0.08690000  0.16580000  0.94370000  1
  O  O139  1  0.08690000  0.66580000  0.44370000  1
  O  O140  1  0.41310000  0.66580000  0.94370000  1
  O  O141  1  0.41310000  0.16580000  0.44370000  1
  O  O142  1  0.91310000  0.16580000  0.94370000  1
  O  O143  1  0.91310000  0.66580000  0.44370000  1
  O  O144  1  0.41310000  0.66580000  0.05630000  1
  O  O145  1  0.41310000  0.16580000  0.55630000  1
  O  O146  1  0.91310000  0.16580000  0.05630000  1
  O  O147  1  0.91310000  0.66580000  0.55630000  1
  O  O148  1  0.58690000  0.66580000  0.05630000  1
  O  O149  1  0.58690000  0.16580000  0.55630000  1
  O  O150  1  0.08690000  0.16580000  0.05630000  1
  O  O151  1  0.08690000  0.66580000  0.55630000  1
  O  O152  1  0.41310000  0.33420000  0.05630000  1
  O  O153  1  0.41310000  0.83420000  0.55630000  1
  O  O154  1  0.91310000  0.83420000  0.05630000  1
  O  O155  1  0.91310000  0.33420000  0.55630000  1
  O  O156  1  0.58690000  0.33420000  0.05630000  1
  O  O157  1  0.58690000  0.83420000  0.55630000  1
  O  O158  1  0.08690000  0.83420000  0.05630000  1
  O  O159  1  0.08690000  0.33420000  0.55630000  1
  O  O160  1  0.55060000  0.24500000  0.85100000  1
  O  O161  1  0.55060000  0.74500000  0.35100000  1
  O  O162  1  0.05060000  0.74500000  0.85100000  1
  O  O163  1  0.05060000  0.24500000  0.35100000  1
  O  O164  1  0.44940000  0.24500000  0.85100000  1
  O  O165  1  0.44940000  0.74500000  0.35100000  1
  O  O166  1  0.94940000  0.74500000  0.85100000  1
  O  O167  1  0.94940000  0.24500000  0.35100000  1
  O  O168  1  0.55060000  0.75500000  0.85100000  1
  O  O169  1  0.55060000  0.25500000  0.35100000  1
  O  O170  1  0.05060000  0.25500000  0.85100000  1
  O  O171  1  0.05060000  0.75500000  0.35100000  1
  O  O172  1  0.44940000  0.75500000  0.85100000  1
  O  O173  1  0.44940000  0.25500000  0.35100000  1
  O  O174  1  0.94940000  0.25500000  0.85100000  1
  O  O175  1  0.94940000  0.75500000  0.35100000  1
  O  O176  1  0.44940000  0.75500000  0.14900000  1
  O  O177  1  0.44940000  0.25500000  0.64900000  1
  O  O178  1  0.94940000  0.25500000  0.14900000  1
  O  O179  1  0.94940000  0.75500000  0.64900000  1
  O  O180  1  0.55060000  0.75500000  0.14900000  1
  O  O181  1  0.55060000  0.25500000  0.64900000  1
  O  O182  1  0.05060000  0.25500000  0.14900000  1
  O  O183  1  0.05060000  0.75500000  0.64900000  1
  O  O184  1  0.44940000  0.24500000  0.14900000  1
  O  O185  1  0.44940000  0.74500000  0.64900000  1
  O  O186  1  0.94940000  0.74500000  0.14900000  1
  O  O187  1  0.94940000  0.24500000  0.64900000  1
  O  O188  1  0.55060000  0.24500000  0.14900000  1
  O  O189  1  0.55060000  0.74500000  0.64900000  1
  O  O190  1  0.05060000  0.74500000  0.14900000  1
  O  O191  1  0.05060000  0.24500000  0.64900000  1
  O  O192  1  0.34890000  0.50000000  0.76330000  1
  O  O193  1  0.34890000  0.00000000  0.26330000  1
  O  O194  1  0.84890000  0.00000000  0.76330000  1
  O  O195  1  0.84890000  0.50000000  0.26330000  1
  O  O196  1  0.65110000  0.50000000  0.76330000  1
  O  O197  1  0.65110000  0.00000000  0.26330000  1
  O  O198  1  0.15110000  0.00000000  0.76330000  1
  O  O199  1  0.15110000  0.50000000  0.26330000  1
  O  O200  1  0.65110000  0.50000000  0.23670000  1
  O  O201  1  0.65110000  0.00000000  0.73670000  1
  O  O202  1  0.15110000  0.00000000  0.23670000  1
  O  O203  1  0.15110000  0.50000000  0.73670000  1
  O  O204  1  0.34890000  0.50000000  0.23670000  1
  O  O205  1  0.34890000  0.00000000  0.73670000  1
  O  O206  1  0.84890000  0.00000000  0.23670000  1
  O  O207  1  0.84890000  0.50000000  0.73670000  1
  O  O208  1  0.25000000  0.50000000  0.75000000  1
  O  O209  1  0.25000000  0.00000000  0.25000000  1
  O  O210  1  0.75000000  0.00000000  0.75000000  1
  O  O211  1  0.75000000  0.50000000  0.25000000  1
  O  O212  1  0.75000000  0.50000000  0.75000000  1
  O  O213  1  0.75000000  0.00000000  0.25000000  1
  O  O214  1  0.25000000  0.00000000  0.75000000  1
  O  O215  1  0.25000000  0.50000000  0.25000000  1
  O  O216  1  0.55040000  0.50000000  0.75980000  1
  O  O217  1  0.55040000  0.00000000  0.25980000  1
  O  O218  1  0.05040000  0.00000000  0.75980000  1
  O  O219  1  0.05040000  0.50000000  0.25980000  1
  O  O220  1  0.44960000  0.50000000  0.75980000  1
  O  O221  1  0.44960000  0.00000000  0.25980000  1
  O  O222  1  0.94960000  0.00000000  0.75980000  1
  O  O223  1  0.94960000  0.50000000  0.25980000  1
  O  O224  1  0.44960000  0.50000000  0.24020000  1
  O  O225  1  0.44960000  0.00000000  0.74020000  1
  O  O226  1  0.94960000  0.00000000  0.24020000  1
  O  O227  1  0.94960000  0.50000000  0.74020000  1
  O  O228  1  0.55040000  0.50000000  0.24020000  1
  O  O229  1  0.55040000  0.00000000  0.74020000  1
  O  O230  1  0.05040000  0.00000000  0.24020000  1
  O  O231  1  0.05040000  0.50000000  0.74020000  1
  O  O232  1  0.50000000  0.63170000  0.00000000  1
  O  O233  1  0.50000000  0.13170000  0.50000000  1
  O  O234  1  0.00000000  0.13170000  0.00000000  1
  O  O235  1  0.00000000  0.63170000  0.50000000  1
  O  O236  1  0.50000000  0.36830000  0.00000000  1
  O  O237  1  0.50000000  0.86830000  0.50000000  1
  O  O238  1  0.00000000  0.86830000  0.00000000  1
  O  O239  1  0.00000000  0.36830000  0.50000000  1
  O  O240  1  0.57250000  0.50000000  0.00000000  1
  O  O241  1  0.57250000  0.00000000  0.50000000  1
  O  O242  1  0.07250000  0.00000000  0.00000000  1
  O  O243  1  0.07250000  0.50000000  0.50000000  1
  O  O244  1  0.42750000  0.50000000  0.00000000  1
  O  O245  1  0.42750000  0.00000000  0.50000000  1
  O  O246  1  0.92750000  0.00000000  0.00000000  1
  O  O247  1  0.92750000  0.50000000  0.50000000  1
  O  O248  1  0.50000000  0.40450000  0.68000000  1
  O  O249  1  0.50000000  0.90450000  0.18000000  1
  O  O250  1  0.00000000  0.90450000  0.68000000  1
  O  O251  1  0.00000000  0.40450000  0.18000000  1
  O  O252  1  0.50000000  0.59550000  0.68000000  1
  O  O253  1  0.50000000  0.09550000  0.18000000  1
  O  O254  1  0.00000000  0.09550000  0.68000000  1
  O  O255  1  0.00000000  0.59550000  0.18000000  1
  O  O256  1  0.50000000  0.59550000  0.32000000  1
  O  O257  1  0.50000000  0.09550000  0.82000000  1
  O  O258  1  0.00000000  0.09550000  0.32000000  1
  O  O259  1  0.00000000  0.59550000  0.82000000  1
  O  O260  1  0.50000000  0.40450000  0.32000000  1
  O  O261  1  0.50000000  0.90450000  0.82000000  1
  O  O262  1  0.00000000  0.90450000  0.32000000  1
  O  O263  1  0.00000000  0.40450000  0.82000000  1
  O  O264  1  0.50000000  0.25000000  0.75000000  1
  O  O265  1  0.50000000  0.75000000  0.25000000  1
  O  O266  1  0.00000000  0.75000000  0.75000000  1
  O  O267  1  0.00000000  0.25000000  0.25000000  1
  O  O268  1  0.50000000  0.75000000  0.75000000  1
  O  O269  1  0.50000000  0.25000000  0.25000000  1
  O  O270  1  0.00000000  0.25000000  0.75000000  1
  O  O271  1  0.00000000  0.75000000  0.25000000  1
