# generated using pymatgen
data_O2
_symmetry_space_group_name_H-M   'P 1'
_cell_length_a   9.12700000
_cell_length_b   17.48000000
_cell_length_c   10.37700000
_cell_angle_alpha   90.00000000
_cell_angle_beta   124.93900000
_cell_angle_gamma   90.00000000
_symmetry_Int_Tables_number   1
_chemical_formula_structural   O2
_chemical_formula_sum   O48
_cell_volume   1357.15423020
_cell_formula_units_Z   24
loop_
 _symmetry_equiv_pos_site_id
 _symmetry_equiv_pos_as_xyz
  1  'x, y, z'
loop_
 _atom_site_type_symbol
 _atom_site_label
 _atom_site_symmetry_multiplicity
 _atom_site_fract_x
 _atom_site_fract_y
 _atom_site_fract_z
 _atom_site_occupancy
  O  O0  1  0.81840000  0.11410000  0.12640000  1
  O  O1  1  0.31840000  0.61410000  0.12640000  1
  O  O2  1  0.18160000  0.11410000  0.87360000  1
  O  O3  1  0.68160000  0.61410000  0.87360000  1
  O  O4  1  0.18160000  0.88590000  0.87360000  1
  O  O5  1  0.68160000  0.38590000  0.87360000  1
  O  O6  1  0.81840000  0.88590000  0.12640000  1
  O  O7  1  0.31840000  0.38590000  0.12640000  1
  O  O8  1  0.03900000  0.00000000  0.19210000  1
  O  O9  1  0.53900000  0.50000000  0.19210000  1
  O  O10  1  0.96100000  0.00000000  0.80790000  1
  O  O11  1  0.46100000  0.50000000  0.80790000  1
  O  O12  1  0.16470000  0.13760000  0.30070000  1
  O  O13  1  0.66470000  0.63760000  0.30070000  1
  O  O14  1  0.83530000  0.13760000  0.69930000  1
  O  O15  1  0.33530000  0.63760000  0.69930000  1
  O  O16  1  0.83530000  0.86240000  0.69930000  1
  O  O17  1  0.33530000  0.36240000  0.69930000  1
  O  O18  1  0.16470000  0.86240000  0.30070000  1
  O  O19  1  0.66470000  0.36240000  0.30070000  1
  O  O20  1  0.00000000  0.10910000  0.00000000  1
  O  O21  1  0.50000000  0.60910000  0.00000000  1
  O  O22  1  0.00000000  0.89090000  0.00000000  1
  O  O23  1  0.50000000  0.39090000  0.00000000  1
  O  O24  1  0.27840000  0.26920000  0.26410000  1
  O  O25  1  0.77840000  0.76920000  0.26410000  1
  O  O26  1  0.72160000  0.26920000  0.73590000  1
  O  O27  1  0.22160000  0.76920000  0.73590000  1
  O  O28  1  0.72160000  0.73080000  0.73590000  1
  O  O29  1  0.22160000  0.23080000  0.73590000  1
  O  O30  1  0.27840000  0.73080000  0.26410000  1
  O  O31  1  0.77840000  0.23080000  0.26410000  1
  O  O32  1  0.25000000  0.25000000  0.50000000  1
  O  O33  1  0.75000000  0.75000000  0.50000000  1
  O  O34  1  0.75000000  0.25000000  0.50000000  1
  O  O35  1  0.25000000  0.75000000  0.50000000  1
  O  O36  1  0.50000000  0.17770000  0.50000000  1
  O  O37  1  0.00000000  0.67770000  0.50000000  1
  O  O38  1  0.50000000  0.82230000  0.50000000  1
  O  O39  1  0.00000000  0.32230000  0.50000000  1
  O  O40  1  0.50000000  0.17490000  0.00000000  1
  O  O41  1  0.00000000  0.67490000  0.00000000  1
  O  O42  1  0.50000000  0.82510000  0.00000000  1
  O  O43  1  0.00000000  0.32510000  0.00000000  1
  O  O44  1  0.75000000  0.25000000  0.00000000  1
  O  O45  1  0.25000000  0.75000000  0.00000000  1
  O  O46  1  0.25000000  0.25000000  0.00000000  1
  O  O47  1  0.75000000  0.75000000  0.00000000  1
