# generated using pymatgen
data_SiO4
_symmetry_space_group_name_H-M   'P 1'
_cell_length_a   9.12700000
_cell_length_b   17.48000000
_cell_length_c   10.37700000
_cell_angle_alpha   90.00000000
_cell_angle_beta   124.93900000
_cell_angle_gamma   90.00000000
_symmetry_Int_Tables_number   1
_chemical_formula_structural   SiO4
_chemical_formula_sum   'Si1 O4'
_cell_volume   1357.15423020
_cell_formula_units_Z   1
loop_
 _symmetry_equiv_pos_site_id
 _symmetry_equiv_pos_as_xyz
  1  'x, y, z'
loop_
 _atom_site_type_symbol
 _atom_site_label
 _atom_site_symmetry_multiplicity
 _atom_site_fract_x
 _atom_site_fract_y
 _atom_site_fract_z
 _atom_site_occupancy
  Si  Si0  1  0.49510000  0.59000000  0.84590000  1
  O  O1  1  0.68160000  0.61410000  0.87360000  1
  O  O2  1  0.46100000  0.50000000  0.80790000  1
  O  O3  1  0.33530000  0.63760000  0.69930000  1
  O  O4  1  0.50000000  0.60910000  1.00000000  1
