# generated using pymatgen
data_SiO4
_symmetry_space_group_name_H-M   'P 1'
_cell_length_a   14.29600000
_cell_length_b   56.78800000
_cell_length_c   20.29000000
_cell_angle_alpha   90.00000000
_cell_angle_beta   90.00000000
_cell_angle_gamma   90.00000000
_symmetry_Int_Tables_number   1
_chemical_formula_structural   SiO4
_chemical_formula_sum   'Si1 O4'
_cell_volume   16472.25892192
_cell_formula_units_Z   1
loop_
 _symmetry_equiv_pos_site_id
 _symmetry_equiv_pos_as_xyz
  1  'x, y, z'
loop_
 _atom_site_type_symbol
 _atom_site_label
 _atom_site_symmetry_multiplicity
 _atom_site_fract_x
 _atom_site_fract_y
 _atom_site_fract_z
 _atom_site_occupancy
  Si  Si0  1  0.69640000  0.56100000  0.02830000  1
  O  O1  1  0.59220000  0.56550000  0.05560000  1
  O  O2  1  0.72710000  0.53460000  0.04830000  1
  O  O3  1  0.69690000  0.56370000  -0.05060000  1
  O  O4  1  0.76820000  0.57980000  0.05970000  1
