# generated using pymatgen
data_O2
_symmetry_space_group_name_H-M   'P 1'
_cell_length_a   14.29600000
_cell_length_b   56.78800000
_cell_length_c   20.29000000
_cell_angle_alpha   90.00000000
_cell_angle_beta   90.00000000
_cell_angle_gamma   90.00000000
_symmetry_Int_Tables_number   1
_chemical_formula_structural   O2
_chemical_formula_sum   O576
_cell_volume   16472.25892192
_cell_formula_units_Z   288
loop_
 _symmetry_equiv_pos_site_id
 _symmetry_equiv_pos_as_xyz
  1  'x, y, z'
loop_
 _atom_site_type_symbol
 _atom_site_label
 _atom_site_symmetry_multiplicity
 _atom_site_fract_x
 _atom_site_fract_y
 _atom_site_fract_z
 _atom_site_occupancy
  O  O0  1  0.59220000  0.43450000  0.55560000  1
  O  O1  1  0.09220000  0.93450000  0.55560000  1
  O  O2  1  0.40780000  0.43450000  0.55560000  1
  O  O3  1  0.90780000  0.93450000  0.55560000  1
  O  O4  1  0.59220000  0.56550000  0.05560000  1
  O  O5  1  0.09220000  0.06550000  0.05560000  1
  O  O6  1  0.40780000  0.56550000  0.05560000  1
  O  O7  1  0.90780000  0.06550000  0.05560000  1
  O  O8  1  0.40780000  0.56550000  0.44440000  1
  O  O9  1  0.90780000  0.06550000  0.44440000  1
  O  O10  1  0.59220000  0.56550000  0.44440000  1
  O  O11  1  0.09220000  0.06550000  0.44440000  1
  O  O12  1  0.40780000  0.43450000  0.94440000  1
  O  O13  1  0.90780000  0.93450000  0.94440000  1
  O  O14  1  0.59220000  0.43450000  0.94440000  1
  O  O15  1  0.09220000  0.93450000  0.94440000  1
  O  O16  1  0.50000000  0.40000000  0.49840000  1
  O  O17  1  0.00000000  0.90000000  0.49840000  1
  O  O18  1  0.50000000  0.60000000  0.99840000  1
  O  O19  1  0.00000000  0.10000000  0.99840000  1
  O  O20  1  0.50000000  0.60000000  0.50160000  1
  O  O21  1  0.00000000  0.10000000  0.50160000  1
  O  O22  1  0.50000000  0.40000000  0.00160000  1
  O  O23  1  0.00000000  0.90000000  0.00160000  1
  O  O24  1  0.50000000  0.40410000  0.62770000  1
  O  O25  1  0.00000000  0.90410000  0.62770000  1
  O  O26  1  0.50000000  0.59590000  0.12770000  1
  O  O27  1  0.00000000  0.09590000  0.12770000  1
  O  O28  1  0.50000000  0.59590000  0.37230000  1
  O  O29  1  0.00000000  0.09590000  0.37230000  1
  O  O30  1  0.50000000  0.40410000  0.87230000  1
  O  O31  1  0.00000000  0.90410000  0.87230000  1
  O  O32  1  0.40810000  0.36560000  0.66010000  1
  O  O33  1  0.90810000  0.86560000  0.66010000  1
  O  O34  1  0.59190000  0.36560000  0.66010000  1
  O  O35  1  0.09190000  0.86560000  0.66010000  1
  O  O36  1  0.40810000  0.63440000  0.16010000  1
  O  O37  1  0.90810000  0.13440000  0.16010000  1
  O  O38  1  0.59190000  0.63440000  0.16010000  1
  O  O39  1  0.09190000  0.13440000  0.16010000  1
  O  O40  1  0.59190000  0.63440000  0.33990000  1
  O  O41  1  0.09190000  0.13440000  0.33990000  1
  O  O42  1  0.40810000  0.63440000  0.33990000  1
  O  O43  1  0.90810000  0.13440000  0.33990000  1
  O  O44  1  0.59190000  0.36560000  0.83990000  1
  O  O45  1  0.09190000  0.86560000  0.83990000  1
  O  O46  1  0.40810000  0.36560000  0.83990000  1
  O  O47  1  0.90810000  0.86560000  0.83990000  1
  O  O48  1  0.50000000  0.38950000  0.75000000  1
  O  O49  1  0.00000000  0.88950000  0.75000000  1
  O  O50  1  0.50000000  0.61050000  0.25000000  1
  O  O51  1  0.00000000  0.11050000  0.25000000  1
  O  O52  1  0.50000000  0.28370000  0.75000000  1
  O  O53  1  0.00000000  0.78370000  0.75000000  1
  O  O54  1  0.50000000  0.71630000  0.25000000  1
  O  O55  1  0.00000000  0.21630000  0.25000000  1
  O  O56  1  0.59210000  0.30680000  0.65870000  1
  O  O57  1  0.09210000  0.80680000  0.65870000  1
  O  O58  1  0.40790000  0.30680000  0.65870000  1
  O  O59  1  0.90790000  0.80680000  0.65870000  1
  O  O60  1  0.59210000  0.69320000  0.15870000  1
  O  O61  1  0.09210000  0.19320000  0.15870000  1
  O  O62  1  0.40790000  0.69320000  0.15870000  1
  O  O63  1  0.90790000  0.19320000  0.15870000  1
  O  O64  1  0.40790000  0.69320000  0.34130000  1
  O  O65  1  0.90790000  0.19320000  0.34130000  1
  O  O66  1  0.59210000  0.69320000  0.34130000  1
  O  O67  1  0.09210000  0.19320000  0.34130000  1
  O  O68  1  0.40790000  0.30680000  0.84130000  1
  O  O69  1  0.90790000  0.80680000  0.84130000  1
  O  O70  1  0.59210000  0.30680000  0.84130000  1
  O  O71  1  0.09210000  0.80680000  0.84130000  1
  O  O72  1  0.50000000  0.26820000  0.62830000  1
  O  O73  1  0.00000000  0.76820000  0.62830000  1
  O  O74  1  0.50000000  0.73180000  0.12830000  1
  O  O75  1  0.00000000  0.23180000  0.12830000  1
  O  O76  1  0.50000000  0.73180000  0.37170000  1
  O  O77  1  0.00000000  0.23180000  0.37170000  1
  O  O78  1  0.50000000  0.26820000  0.87170000  1
  O  O79  1  0.00000000  0.76820000  0.87170000  1
  O  O80  1  0.50000000  0.27270000  0.00070000  1
  O  O81  1  0.00000000  0.77270000  0.00070000  1
  O  O82  1  0.50000000  0.72730000  0.50070000  1
  O  O83  1  0.00000000  0.22730000  0.50070000  1
  O  O84  1  0.50000000  0.72730000  0.99930000  1
  O  O85  1  0.00000000  0.22730000  0.99930000  1
  O  O86  1  0.50000000  0.27270000  0.49930000  1
  O  O87  1  0.00000000  0.77270000  0.49930000  1
  O  O88  1  0.59150000  0.23780000  0.94510000  1
  O  O89  1  0.09150000  0.73780000  0.94510000  1
  O  O90  1  0.40850000  0.23780000  0.94510000  1
  O  O91  1  0.90850000  0.73780000  0.94510000  1
  O  O92  1  0.59150000  0.76220000  0.44510000  1
  O  O93  1  0.09150000  0.26220000  0.44510000  1
  O  O94  1  0.40850000  0.76220000  0.44510000  1
  O  O95  1  0.90850000  0.26220000  0.44510000  1
  O  O96  1  0.40850000  0.76220000  0.05490000  1
  O  O97  1  0.90850000  0.26220000  0.05490000  1
  O  O98  1  0.59150000  0.76220000  0.05490000  1
  O  O99  1  0.09150000  0.26220000  0.05490000  1
  O  O100  1  0.40850000  0.23780000  0.55490000  1
  O  O101  1  0.90850000  0.73780000  0.55490000  1
  O  O102  1  0.59150000  0.23780000  0.55490000  1
  O  O103  1  0.09150000  0.73780000  0.55490000  1
  O  O104  1  0.50000000  0.07190000  0.63170000  1
  O  O105  1  0.00000000  0.57190000  0.63170000  1
  O  O106  1  0.50000000  0.92810000  0.13170000  1
  O  O107  1  0.00000000  0.42810000  0.13170000  1
  O  O108  1  0.50000000  0.92810000  0.36830000  1
  O  O109  1  0.00000000  0.42810000  0.36830000  1
  O  O110  1  0.50000000  0.07190000  0.86830000  1
  O  O111  1  0.00000000  0.57190000  0.86830000  1
  O  O112  1  0.40810000  0.11060000  0.66360000  1
  O  O113  1  0.90810000  0.61060000  0.66360000  1
  O  O114  1  0.59190000  0.11060000  0.66360000  1
  O  O115  1  0.09190000  0.61060000  0.66360000  1
  O  O116  1  0.40810000  0.88940000  0.16360000  1
  O  O117  1  0.90810000  0.38940000  0.16360000  1
  O  O118  1  0.59190000  0.88940000  0.16360000  1
  O  O119  1  0.09190000  0.38940000  0.16360000  1
  O  O120  1  0.59190000  0.88940000  0.33640000  1
  O  O121  1  0.09190000  0.38940000  0.33640000  1
  O  O122  1  0.40810000  0.88940000  0.33640000  1
  O  O123  1  0.90810000  0.38940000  0.33640000  1
  O  O124  1  0.59190000  0.11060000  0.83640000  1
  O  O125  1  0.09190000  0.61060000  0.83640000  1
  O  O126  1  0.40810000  0.11060000  0.83640000  1
  O  O127  1  0.90810000  0.61060000  0.83640000  1
  O  O128  1  0.50000000  0.10860000  0.55240000  1
  O  O129  1  0.00000000  0.60860000  0.55240000  1
  O  O130  1  0.50000000  0.89140000  0.05240000  1
  O  O131  1  0.00000000  0.39140000  0.05240000  1
  O  O132  1  0.50000000  0.89140000  0.44760000  1
  O  O133  1  0.00000000  0.39140000  0.44760000  1
  O  O134  1  0.50000000  0.10860000  0.94760000  1
  O  O135  1  0.00000000  0.60860000  0.94760000  1
  O  O136  1  0.50000000  0.03580000  0.55000000  1
  O  O137  1  0.00000000  0.53580000  0.55000000  1
  O  O138  1  0.50000000  0.96420000  0.05000000  1
  O  O139  1  0.00000000  0.46420000  0.05000000  1
  O  O140  1  0.50000000  0.96420000  0.45000000  1
  O  O141  1  0.00000000  0.46420000  0.45000000  1
  O  O142  1  0.50000000  0.03580000  0.95000000  1
  O  O143  1  0.00000000  0.53580000  0.95000000  1
  O  O144  1  0.59150000  0.03310000  0.66190000  1
  O  O145  1  0.09150000  0.53310000  0.66190000  1
  O  O146  1  0.40850000  0.03310000  0.66190000  1
  O  O147  1  0.90850000  0.53310000  0.66190000  1
  O  O148  1  0.59150000  0.96690000  0.16190000  1
  O  O149  1  0.09150000  0.46690000  0.16190000  1
  O  O150  1  0.40850000  0.96690000  0.16190000  1
  O  O151  1  0.90850000  0.46690000  0.16190000  1
  O  O152  1  0.40850000  0.96690000  0.33810000  1
  O  O153  1  0.90850000  0.46690000  0.33810000  1
  O  O154  1  0.59150000  0.96690000  0.33810000  1
  O  O155  1  0.09150000  0.46690000  0.33810000  1
  O  O156  1  0.40850000  0.03310000  0.83810000  1
  O  O157  1  0.90850000  0.53310000  0.83810000  1
  O  O158  1  0.59150000  0.03310000  0.83810000  1
  O  O159  1  0.09150000  0.53310000  0.83810000  1
  O  O160  1  0.22710000  0.03460000  0.04830000  1
  O  O161  1  0.72710000  0.53460000  0.04830000  1
  O  O162  1  0.77290000  0.03460000  0.04830000  1
  O  O163  1  0.27290000  0.53460000  0.04830000  1
  O  O164  1  0.22710000  0.96540000  0.54830000  1
  O  O165  1  0.72710000  0.46540000  0.54830000  1
  O  O166  1  0.77290000  0.96540000  0.54830000  1
  O  O167  1  0.27290000  0.46540000  0.54830000  1
  O  O168  1  0.77290000  0.96540000  0.95170000  1
  O  O169  1  0.27290000  0.46540000  0.95170000  1
  O  O170  1  0.22710000  0.96540000  0.95170000  1
  O  O171  1  0.72710000  0.46540000  0.95170000  1
  O  O172  1  0.77290000  0.03460000  0.45170000  1
  O  O173  1  0.27290000  0.53460000  0.45170000  1
  O  O174  1  0.22710000  0.03460000  0.45170000  1
  O  O175  1  0.72710000  0.53460000  0.45170000  1
  O  O176  1  0.19690000  0.06370000  0.94940000  1
  O  O177  1  0.69690000  0.56370000  0.94940000  1
  O  O178  1  0.80310000  0.06370000  0.94940000  1
  O  O179  1  0.30310000  0.56370000  0.94940000  1
  O  O180  1  0.19690000  0.93630000  0.44940000  1
  O  O181  1  0.69690000  0.43630000  0.44940000  1
  O  O182  1  0.80310000  0.93630000  0.44940000  1
  O  O183  1  0.30310000  0.43630000  0.44940000  1
  O  O184  1  0.80310000  0.93630000  0.05060000  1
  O  O185  1  0.30310000  0.43630000  0.05060000  1
  O  O186  1  0.19690000  0.93630000  0.05060000  1
  O  O187  1  0.69690000  0.43630000  0.05060000  1
  O  O188  1  0.80310000  0.06370000  0.55060000  1
  O  O189  1  0.30310000  0.56370000  0.55060000  1
  O  O190  1  0.19690000  0.06370000  0.55060000  1
  O  O191  1  0.69690000  0.56370000  0.55060000  1
  O  O192  1  0.26820000  0.07980000  0.05970000  1
  O  O193  1  0.76820000  0.57980000  0.05970000  1
  O  O194  1  0.73180000  0.07980000  0.05970000  1
  O  O195  1  0.23180000  0.57980000  0.05970000  1
  O  O196  1  0.26820000  0.92020000  0.55970000  1
  O  O197  1  0.76820000  0.42020000  0.55970000  1
  O  O198  1  0.73180000  0.92020000  0.55970000  1
  O  O199  1  0.23180000  0.42020000  0.55970000  1
  O  O200  1  0.73180000  0.92020000  0.94030000  1
  O  O201  1  0.23180000  0.42020000  0.94030000  1
  O  O202  1  0.26820000  0.92020000  0.94030000  1
  O  O203  1  0.76820000  0.42020000  0.94030000  1
  O  O204  1  0.73180000  0.07980000  0.44030000  1
  O  O205  1  0.23180000  0.57980000  0.44030000  1
  O  O206  1  0.26820000  0.07980000  0.44030000  1
  O  O207  1  0.76820000  0.57980000  0.44030000  1
  O  O208  1  0.23290000  0.16350000  0.14800000  1
  O  O209  1  0.73290000  0.66350000  0.14800000  1
  O  O210  1  0.76710000  0.16350000  0.14800000  1
  O  O211  1  0.26710000  0.66350000  0.14800000  1
  O  O212  1  0.23290000  0.83650000  0.64800000  1
  O  O213  1  0.73290000  0.33650000  0.64800000  1
  O  O214  1  0.76710000  0.83650000  0.64800000  1
  O  O215  1  0.26710000  0.33650000  0.64800000  1
  O  O216  1  0.76710000  0.83650000  0.85200000  1
  O  O217  1  0.26710000  0.33650000  0.85200000  1
  O  O218  1  0.23290000  0.83650000  0.85200000  1
  O  O219  1  0.73290000  0.33650000  0.85200000  1
  O  O220  1  0.76710000  0.16350000  0.35200000  1
  O  O221  1  0.26710000  0.66350000  0.35200000  1
  O  O222  1  0.23290000  0.16350000  0.35200000  1
  O  O223  1  0.73290000  0.66350000  0.35200000  1
  O  O224  1  0.25870000  0.11790000  0.13200000  1
  O  O225  1  0.75870000  0.61790000  0.13200000  1
  O  O226  1  0.74130000  0.11790000  0.13200000  1
  O  O227  1  0.24130000  0.61790000  0.13200000  1
  O  O228  1  0.25870000  0.88210000  0.63200000  1
  O  O229  1  0.75870000  0.38210000  0.63200000  1
  O  O230  1  0.74130000  0.88210000  0.63200000  1
  O  O231  1  0.24130000  0.38210000  0.63200000  1
  O  O232  1  0.74130000  0.88210000  0.86800000  1
  O  O233  1  0.24130000  0.38210000  0.86800000  1
  O  O234  1  0.25870000  0.88210000  0.86800000  1
  O  O235  1  0.75870000  0.38210000  0.86800000  1
  O  O236  1  0.74130000  0.11790000  0.36800000  1
  O  O237  1  0.24130000  0.61790000  0.36800000  1
  O  O238  1  0.25870000  0.11790000  0.36800000  1
  O  O239  1  0.75870000  0.61790000  0.36800000  1
  O  O240  1  0.22520000  0.13480000  0.25000000  1
  O  O241  1  0.72520000  0.63480000  0.25000000  1
  O  O242  1  0.77480000  0.13480000  0.25000000  1
  O  O243  1  0.27480000  0.63480000  0.25000000  1
  O  O244  1  0.22520000  0.86520000  0.75000000  1
  O  O245  1  0.72520000  0.36520000  0.75000000  1
  O  O246  1  0.77480000  0.86520000  0.75000000  1
  O  O247  1  0.27480000  0.36520000  0.75000000  1
  O  O248  1  0.26660000  0.20840000  0.16110000  1
  O  O249  1  0.76660000  0.70840000  0.16110000  1
  O  O250  1  0.73340000  0.20840000  0.16110000  1
  O  O251  1  0.23340000  0.70840000  0.16110000  1
  O  O252  1  0.26660000  0.79160000  0.66110000  1
  O  O253  1  0.76660000  0.29160000  0.66110000  1
  O  O254  1  0.73340000  0.79160000  0.66110000  1
  O  O255  1  0.23340000  0.29160000  0.66110000  1
  O  O256  1  0.73340000  0.79160000  0.83890000  1
  O  O257  1  0.23340000  0.29160000  0.83890000  1
  O  O258  1  0.26660000  0.79160000  0.83890000  1
  O  O259  1  0.76660000  0.29160000  0.83890000  1
  O  O260  1  0.73340000  0.20840000  0.33890000  1
  O  O261  1  0.23340000  0.70840000  0.33890000  1
  O  O262  1  0.26660000  0.20840000  0.33890000  1
  O  O263  1  0.76660000  0.70840000  0.33890000  1
  O  O264  1  0.19380000  0.19230000  0.05090000  1
  O  O265  1  0.69380000  0.69230000  0.05090000  1
  O  O266  1  0.80620000  0.19230000  0.05090000  1
  O  O267  1  0.30620000  0.69230000  0.05090000  1
  O  O268  1  0.19380000  0.80770000  0.55090000  1
  O  O269  1  0.69380000  0.30770000  0.55090000  1
  O  O270  1  0.80620000  0.80770000  0.55090000  1
  O  O271  1  0.30620000  0.30770000  0.55090000  1
  O  O272  1  0.80620000  0.80770000  0.94910000  1
  O  O273  1  0.30620000  0.30770000  0.94910000  1
  O  O274  1  0.19380000  0.80770000  0.94910000  1
  O  O275  1  0.69380000  0.30770000  0.94910000  1
  O  O276  1  0.80620000  0.19230000  0.44910000  1
  O  O277  1  0.30620000  0.69230000  0.44910000  1
  O  O278  1  0.19380000  0.19230000  0.44910000  1
  O  O279  1  0.69380000  0.69230000  0.44910000  1
  O  O280  1  0.23540000  0.29120000  0.05880000  1
  O  O281  1  0.73540000  0.79120000  0.05880000  1
  O  O282  1  0.76460000  0.29120000  0.05880000  1
  O  O283  1  0.26460000  0.79120000  0.05880000  1
  O  O284  1  0.23540000  0.70880000  0.55880000  1
  O  O285  1  0.73540000  0.20880000  0.55880000  1
  O  O286  1  0.76460000  0.70880000  0.55880000  1
  O  O287  1  0.26460000  0.20880000  0.55880000  1
  O  O288  1  0.76460000  0.70880000  0.94120000  1
  O  O289  1  0.26460000  0.20880000  0.94120000  1
  O  O290  1  0.23540000  0.70880000  0.94120000  1
  O  O291  1  0.73540000  0.20880000  0.94120000  1
  O  O292  1  0.76460000  0.29120000  0.44120000  1
  O  O293  1  0.26460000  0.79120000  0.44120000  1
  O  O294  1  0.23540000  0.29120000  0.44120000  1
  O  O295  1  0.73540000  0.79120000  0.44120000  1
  O  O296  1  0.25000000  0.25000000  0.00000000  1
  O  O297  1  0.75000000  0.75000000  0.00000000  1
  O  O298  1  0.75000000  0.25000000  0.00000000  1
  O  O299  1  0.25000000  0.75000000  0.00000000  1
  O  O300  1  0.25000000  0.75000000  0.50000000  1
  O  O301  1  0.75000000  0.25000000  0.50000000  1
  O  O302  1  0.75000000  0.75000000  0.50000000  1
  O  O303  1  0.25000000  0.25000000  0.50000000  1
  O  O304  1  0.23670000  0.25250000  0.12910000  1
  O  O305  1  0.73670000  0.75250000  0.12910000  1
  O  O306  1  0.76330000  0.25250000  0.12910000  1
  O  O307  1  0.26330000  0.75250000  0.12910000  1
  O  O308  1  0.23670000  0.74750000  0.62910000  1
  O  O309  1  0.73670000  0.24750000  0.62910000  1
  O  O310  1  0.76330000  0.74750000  0.62910000  1
  O  O311  1  0.26330000  0.24750000  0.62910000  1
  O  O312  1  0.76330000  0.74750000  0.87090000  1
  O  O313  1  0.26330000  0.24750000  0.87090000  1
  O  O314  1  0.23670000  0.74750000  0.87090000  1
  O  O315  1  0.73670000  0.24750000  0.87090000  1
  O  O316  1  0.76330000  0.25250000  0.37090000  1
  O  O317  1  0.26330000  0.75250000  0.37090000  1
  O  O318  1  0.23670000  0.25250000  0.37090000  1
  O  O319  1  0.73670000  0.75250000  0.37090000  1
  O  O320  1  0.22730000  0.38510000  0.25000000  1
  O  O321  1  0.72730000  0.88510000  0.25000000  1
  O  O322  1  0.77270000  0.38510000  0.25000000  1
  O  O323  1  0.27270000  0.88510000  0.25000000  1
  O  O324  1  0.22730000  0.61490000  0.75000000  1
  O  O325  1  0.72730000  0.11490000  0.75000000  1
  O  O326  1  0.77270000  0.61490000  0.75000000  1
  O  O327  1  0.27270000  0.11490000  0.75000000  1
  O  O328  1  0.25710000  0.37350000  0.12580000  1
  O  O329  1  0.75710000  0.87350000  0.12580000  1
  O  O330  1  0.74290000  0.37350000  0.12580000  1
  O  O331  1  0.24290000  0.87350000  0.12580000  1
  O  O332  1  0.25710000  0.62650000  0.62580000  1
  O  O333  1  0.75710000  0.12650000  0.62580000  1
  O  O334  1  0.74290000  0.62650000  0.62580000  1
  O  O335  1  0.24290000  0.12650000  0.62580000  1
  O  O336  1  0.74290000  0.62650000  0.87420000  1
  O  O337  1  0.24290000  0.12650000  0.87420000  1
  O  O338  1  0.25710000  0.62650000  0.87420000  1
  O  O339  1  0.75710000  0.12650000  0.87420000  1
  O  O340  1  0.74290000  0.37350000  0.37420000  1
  O  O341  1  0.24290000  0.87350000  0.37420000  1
  O  O342  1  0.25710000  0.37350000  0.37420000  1
  O  O343  1  0.75710000  0.87350000  0.37420000  1
  O  O344  1  0.23440000  0.41810000  0.15950000  1
  O  O345  1  0.73440000  0.91810000  0.15950000  1
  O  O346  1  0.76560000  0.41810000  0.15950000  1
  O  O347  1  0.26560000  0.91810000  0.15950000  1
  O  O348  1  0.23440000  0.58190000  0.65950000  1
  O  O349  1  0.73440000  0.08190000  0.65950000  1
  O  O350  1  0.76560000  0.58190000  0.65950000  1
  O  O351  1  0.26560000  0.08190000  0.65950000  1
  O  O352  1  0.76560000  0.58190000  0.84050000  1
  O  O353  1  0.26560000  0.08190000  0.84050000  1
  O  O354  1  0.23440000  0.58190000  0.84050000  1
  O  O355  1  0.73440000  0.08190000  0.84050000  1
  O  O356  1  0.76560000  0.41810000  0.34050000  1
  O  O357  1  0.26560000  0.91810000  0.34050000  1
  O  O358  1  0.23440000  0.41810000  0.34050000  1
  O  O359  1  0.73440000  0.91810000  0.34050000  1
  O  O360  1  0.27330000  0.46350000  0.15350000  1
  O  O361  1  0.77330000  0.96350000  0.15350000  1
  O  O362  1  0.72670000  0.46350000  0.15350000  1
  O  O363  1  0.22670000  0.96350000  0.15350000  1
  O  O364  1  0.27330000  0.53650000  0.65350000  1
  O  O365  1  0.77330000  0.03650000  0.65350000  1
  O  O366  1  0.72670000  0.53650000  0.65350000  1
  O  O367  1  0.22670000  0.03650000  0.65350000  1
  O  O368  1  0.72670000  0.53650000  0.84650000  1
  O  O369  1  0.22670000  0.03650000  0.84650000  1
  O  O370  1  0.27330000  0.53650000  0.84650000  1
  O  O371  1  0.77330000  0.03650000  0.84650000  1
  O  O372  1  0.72670000  0.46350000  0.34650000  1
  O  O373  1  0.22670000  0.96350000  0.34650000  1
  O  O374  1  0.27330000  0.46350000  0.34650000  1
  O  O375  1  0.77330000  0.96350000  0.34650000  1
  O  O376  1  0.19290000  0.50400000  0.12860000  1
  O  O377  1  0.69290000  0.00400000  0.12860000  1
  O  O378  1  0.80710000  0.50400000  0.12860000  1
  O  O379  1  0.30710000  0.00400000  0.12860000  1
  O  O380  1  0.19290000  0.49600000  0.62860000  1
  O  O381  1  0.69290000  0.99600000  0.62860000  1
  O  O382  1  0.80710000  0.49600000  0.62860000  1
  O  O383  1  0.30710000  0.99600000  0.62860000  1
  O  O384  1  0.80710000  0.49600000  0.87140000  1
  O  O385  1  0.30710000  0.99600000  0.87140000  1
  O  O386  1  0.19290000  0.49600000  0.87140000  1
  O  O387  1  0.69290000  0.99600000  0.87140000  1
  O  O388  1  0.80710000  0.50400000  0.37140000  1
  O  O389  1  0.30710000  0.00400000  0.37140000  1
  O  O390  1  0.19290000  0.50400000  0.37140000  1
  O  O391  1  0.69290000  0.00400000  0.37140000  1
  O  O392  1  0.19780000  0.48790000  0.25000000  1
  O  O393  1  0.69780000  0.98790000  0.25000000  1
  O  O394  1  0.80220000  0.48790000  0.25000000  1
  O  O395  1  0.30220000  0.98790000  0.25000000  1
  O  O396  1  0.19780000  0.51210000  0.75000000  1
  O  O397  1  0.69780000  0.01210000  0.75000000  1
  O  O398  1  0.80220000  0.51210000  0.75000000  1
  O  O399  1  0.30220000  0.01210000  0.75000000  1
  O  O400  1  0.40840000  0.03460000  0.06340000  1
  O  O401  1  0.90840000  0.53460000  0.06340000  1
  O  O402  1  0.59160000  0.03460000  0.06340000  1
  O  O403  1  0.09160000  0.53460000  0.06340000  1
  O  O404  1  0.40840000  0.96540000  0.56340000  1
  O  O405  1  0.90840000  0.46540000  0.56340000  1
  O  O406  1  0.59160000  0.96540000  0.56340000  1
  O  O407  1  0.09160000  0.46540000  0.56340000  1
  O  O408  1  0.59160000  0.96540000  0.93660000  1
  O  O409  1  0.09160000  0.46540000  0.93660000  1
  O  O410  1  0.40840000  0.96540000  0.93660000  1
  O  O411  1  0.90840000  0.46540000  0.93660000  1
  O  O412  1  0.59160000  0.03460000  0.43660000  1
  O  O413  1  0.09160000  0.53460000  0.43660000  1
  O  O414  1  0.40840000  0.03460000  0.43660000  1
  O  O415  1  0.90840000  0.53460000  0.43660000  1
  O  O416  1  0.32840000  0.00000000  0.00000000  1
  O  O417  1  0.82840000  0.50000000  0.00000000  1
  O  O418  1  0.67160000  0.00000000  0.00000000  1
  O  O419  1  0.17160000  0.50000000  0.00000000  1
  O  O420  1  0.32840000  0.00000000  0.50000000  1
  O  O421  1  0.82840000  0.50000000  0.50000000  1
  O  O422  1  0.67160000  0.00000000  0.50000000  1
  O  O423  1  0.17160000  0.50000000  0.50000000  1
  O  O424  1  0.40740000  0.11060000  0.05950000  1
  O  O425  1  0.90740000  0.61060000  0.05950000  1
  O  O426  1  0.59260000  0.11060000  0.05950000  1
  O  O427  1  0.09260000  0.61060000  0.05950000  1
  O  O428  1  0.40740000  0.88940000  0.55950000  1
  O  O429  1  0.90740000  0.38940000  0.55950000  1
  O  O430  1  0.59260000  0.88940000  0.55950000  1
  O  O431  1  0.09260000  0.38940000  0.55950000  1
  O  O432  1  0.59260000  0.88940000  0.94050000  1
  O  O433  1  0.09260000  0.38940000  0.94050000  1
  O  O434  1  0.40740000  0.88940000  0.94050000  1
  O  O435  1  0.90740000  0.38940000  0.94050000  1
  O  O436  1  0.59260000  0.11060000  0.44050000  1
  O  O437  1  0.09260000  0.61060000  0.44050000  1
  O  O438  1  0.40740000  0.11060000  0.44050000  1
  O  O439  1  0.90740000  0.61060000  0.44050000  1
  O  O440  1  0.24710000  0.12090000  0.00280000  1
  O  O441  1  0.74710000  0.62090000  0.00280000  1
  O  O442  1  0.75290000  0.12090000  0.00280000  1
  O  O443  1  0.25290000  0.62090000  0.00280000  1
  O  O444  1  0.24710000  0.87910000  0.50280000  1
  O  O445  1  0.74710000  0.37910000  0.50280000  1
  O  O446  1  0.75290000  0.87910000  0.50280000  1
  O  O447  1  0.25290000  0.37910000  0.50280000  1
  O  O448  1  0.75290000  0.87910000  0.99720000  1
  O  O449  1  0.25290000  0.37910000  0.99720000  1
  O  O450  1  0.24710000  0.87910000  0.99720000  1
  O  O451  1  0.74710000  0.37910000  0.99720000  1
  O  O452  1  0.75290000  0.12090000  0.49720000  1
  O  O453  1  0.25290000  0.62090000  0.49720000  1
  O  O454  1  0.24710000  0.12090000  0.49720000  1
  O  O455  1  0.74710000  0.62090000  0.49720000  1
  O  O456  1  0.40800000  0.23830000  0.15620000  1
  O  O457  1  0.90800000  0.73830000  0.15620000  1
  O  O458  1  0.59200000  0.23830000  0.15620000  1
  O  O459  1  0.09200000  0.73830000  0.15620000  1
  O  O460  1  0.40800000  0.76170000  0.65620000  1
  O  O461  1  0.90800000  0.26170000  0.65620000  1
  O  O462  1  0.59200000  0.76170000  0.65620000  1
  O  O463  1  0.09200000  0.26170000  0.65620000  1
  O  O464  1  0.59200000  0.76170000  0.84380000  1
  O  O465  1  0.09200000  0.26170000  0.84380000  1
  O  O466  1  0.40800000  0.76170000  0.84380000  1
  O  O467  1  0.90800000  0.26170000  0.84380000  1
  O  O468  1  0.59200000  0.23830000  0.34380000  1
  O  O469  1  0.09200000  0.73830000  0.34380000  1
  O  O470  1  0.40800000  0.23830000  0.34380000  1
  O  O471  1  0.90800000  0.73830000  0.34380000  1
  O  O472  1  0.28230000  0.24180000  0.25000000  1
  O  O473  1  0.78230000  0.74180000  0.25000000  1
  O  O474  1  0.71770000  0.24180000  0.25000000  1
  O  O475  1  0.21770000  0.74180000  0.25000000  1
  O  O476  1  0.28230000  0.75820000  0.75000000  1
  O  O477  1  0.78230000  0.25820000  0.75000000  1
  O  O478  1  0.71770000  0.75820000  0.75000000  1
  O  O479  1  0.21770000  0.25820000  0.75000000  1
  O  O480  1  0.40790000  0.30750000  0.05670000  1
  O  O481  1  0.90790000  0.80750000  0.05670000  1
  O  O482  1  0.59210000  0.30750000  0.05670000  1
  O  O483  1  0.09210000  0.80750000  0.05670000  1
  O  O484  1  0.40790000  0.69250000  0.55670000  1
  O  O485  1  0.90790000  0.19250000  0.55670000  1
  O  O486  1  0.59210000  0.69250000  0.55670000  1
  O  O487  1  0.09210000  0.19250000  0.55670000  1
  O  O488  1  0.59210000  0.69250000  0.94330000  1
  O  O489  1  0.09210000  0.19250000  0.94330000  1
  O  O490  1  0.40790000  0.69250000  0.94330000  1
  O  O491  1  0.90790000  0.19250000  0.94330000  1
  O  O492  1  0.59210000  0.30750000  0.44330000  1
  O  O493  1  0.09210000  0.80750000  0.44330000  1
  O  O494  1  0.40790000  0.30750000  0.44330000  1
  O  O495  1  0.90790000  0.80750000  0.44330000  1
  O  O496  1  0.26440000  0.33650000  0.04690000  1
  O  O497  1  0.76440000  0.83650000  0.04690000  1
  O  O498  1  0.73560000  0.33650000  0.04690000  1
  O  O499  1  0.23560000  0.83650000  0.04690000  1
  O  O500  1  0.26440000  0.66350000  0.54690000  1
  O  O501  1  0.76440000  0.16350000  0.54690000  1
  O  O502  1  0.73560000  0.66350000  0.54690000  1
  O  O503  1  0.23560000  0.16350000  0.54690000  1
  O  O504  1  0.73560000  0.66350000  0.95310000  1
  O  O505  1  0.23560000  0.16350000  0.95310000  1
  O  O506  1  0.26440000  0.66350000  0.95310000  1
  O  O507  1  0.76440000  0.16350000  0.95310000  1
  O  O508  1  0.73560000  0.33650000  0.45310000  1
  O  O509  1  0.23560000  0.83650000  0.45310000  1
  O  O510  1  0.26440000  0.33650000  0.45310000  1
  O  O511  1  0.76440000  0.83650000  0.45310000  1
  O  O512  1  0.40760000  0.36460000  0.05420000  1
  O  O513  1  0.90760000  0.86460000  0.05420000  1
  O  O514  1  0.59240000  0.36460000  0.05420000  1
  O  O515  1  0.09240000  0.86460000  0.05420000  1
  O  O516  1  0.40760000  0.63540000  0.55420000  1
  O  O517  1  0.90760000  0.13540000  0.55420000  1
  O  O518  1  0.59240000  0.63540000  0.55420000  1
  O  O519  1  0.09240000  0.13540000  0.55420000  1
  O  O520  1  0.59240000  0.63540000  0.94580000  1
  O  O521  1  0.09240000  0.13540000  0.94580000  1
  O  O522  1  0.40760000  0.63540000  0.94580000  1
  O  O523  1  0.90760000  0.13540000  0.94580000  1
  O  O524  1  0.59240000  0.36460000  0.44580000  1
  O  O525  1  0.09240000  0.86460000  0.44580000  1
  O  O526  1  0.40760000  0.36460000  0.44580000  1
  O  O527  1  0.90760000  0.86460000  0.44580000  1
  O  O528  1  0.40830000  0.43270000  0.15660000  1
  O  O529  1  0.90830000  0.93270000  0.15660000  1
  O  O530  1  0.59170000  0.43270000  0.15660000  1
  O  O531  1  0.09170000  0.93270000  0.15660000  1
  O  O532  1  0.40830000  0.56730000  0.65660000  1
  O  O533  1  0.90830000  0.06730000  0.65660000  1
  O  O534  1  0.59170000  0.56730000  0.65660000  1
  O  O535  1  0.09170000  0.06730000  0.65660000  1
  O  O536  1  0.59170000  0.56730000  0.84340000  1
  O  O537  1  0.09170000  0.06730000  0.84340000  1
  O  O538  1  0.40830000  0.56730000  0.84340000  1
  O  O539  1  0.90830000  0.06730000  0.84340000  1
  O  O540  1  0.59170000  0.43270000  0.34340000  1
  O  O541  1  0.09170000  0.93270000  0.34340000  1
  O  O542  1  0.40830000  0.43270000  0.34340000  1
  O  O543  1  0.90830000  0.93270000  0.34340000  1
  O  O544  1  0.50000000  0.07250000  0.02860000  1
  O  O545  1  0.00000000  0.57250000  0.02860000  1
  O  O546  1  0.50000000  0.92750000  0.52860000  1
  O  O547  1  0.00000000  0.42750000  0.52860000  1
  O  O548  1  0.50000000  0.92750000  0.97140000  1
  O  O549  1  0.00000000  0.42750000  0.97140000  1
  O  O550  1  0.50000000  0.07250000  0.47140000  1
  O  O551  1  0.00000000  0.57250000  0.47140000  1
  O  O552  1  0.50000000  0.26040000  0.25000000  1
  O  O553  1  0.00000000  0.76040000  0.25000000  1
  O  O554  1  0.50000000  0.73960000  0.75000000  1
  O  O555  1  0.00000000  0.23960000  0.75000000  1
  O  O556  1  0.50000000  0.27720000  0.12970000  1
  O  O557  1  0.00000000  0.77720000  0.12970000  1
  O  O558  1  0.50000000  0.72280000  0.62970000  1
  O  O559  1  0.00000000  0.22280000  0.62970000  1
  O  O560  1  0.50000000  0.72280000  0.87030000  1
  O  O561  1  0.00000000  0.22280000  0.87030000  1
  O  O562  1  0.50000000  0.27720000  0.37030000  1
  O  O563  1  0.00000000  0.77720000  0.37030000  1
  O  O564  1  0.50000000  0.39360000  0.13000000  1
  O  O565  1  0.00000000  0.89360000  0.13000000  1
  O  O566  1  0.50000000  0.60640000  0.63000000  1
  O  O567  1  0.00000000  0.10640000  0.63000000  1
  O  O568  1  0.50000000  0.60640000  0.87000000  1
  O  O569  1  0.00000000  0.10640000  0.87000000  1
  O  O570  1  0.50000000  0.39360000  0.37000000  1
  O  O571  1  0.00000000  0.89360000  0.37000000  1
  O  O572  1  0.50000000  0.41030000  0.25000000  1
  O  O573  1  0.00000000  0.91030000  0.25000000  1
  O  O574  1  0.50000000  0.58970000  0.75000000  1
  O  O575  1  0.00000000  0.08970000  0.75000000  1
