# generated using pymatgen
data_Si
_symmetry_space_group_name_H-M   'P 1'
_cell_length_a   14.29600000
_cell_length_b   56.78800000
_cell_length_c   20.29000000
_cell_angle_alpha   90.00000000
_cell_angle_beta   90.00000000
_cell_angle_gamma   90.00000000
_symmetry_Int_Tables_number   1
_chemical_formula_structural   Si
_chemical_formula_sum   Si288
_cell_volume   16472.25892192
_cell_formula_units_Z   288
loop_
 _symmetry_equiv_pos_site_id
 _symmetry_equiv_pos_as_xyz
  1  'x, y, z'
loop_
 _atom_site_type_symbol
 _atom_site_label
 _atom_site_symmetry_multiplicity
 _atom_site_fract_x
 _atom_site_fract_y
 _atom_site_fract_z
 _atom_site_occupancy
  Si  Si0  1  0.19640000  0.06100000  0.02830000  1
  Si  Si1  1  0.69640000  0.56100000  0.02830000  1
  Si  Si2  1  0.80360000  0.06100000  0.02830000  1
  Si  Si3  1  0.30360000  0.56100000  0.02830000  1
  Si  Si4  1  0.19640000  0.93900000  0.52830000  1
  Si  Si5  1  0.69640000  0.43900000  0.52830000  1
  Si  Si6  1  0.80360000  0.93900000  0.52830000  1
  Si  Si7  1  0.30360000  0.43900000  0.52830000  1
  Si  Si8  1  0.80360000  0.93900000  0.97170000  1
  Si  Si9  1  0.30360000  0.43900000  0.97170000  1
  Si  Si10  1  0.19640000  0.93900000  0.97170000  1
  Si  Si11  1  0.69640000  0.43900000  0.97170000  1
  Si  Si12  1  0.80360000  0.06100000  0.47170000  1
  Si  Si13  1  0.30360000  0.56100000  0.47170000  1
  Si  Si14  1  0.19640000  0.06100000  0.47170000  1
  Si  Si15  1  0.69640000  0.56100000  0.47170000  1
  Si  Si16  1  0.19580000  0.18940000  0.12970000  1
  Si  Si17  1  0.69580000  0.68940000  0.12970000  1
  Si  Si18  1  0.80420000  0.18940000  0.12970000  1
  Si  Si19  1  0.30420000  0.68940000  0.12970000  1
  Si  Si20  1  0.19580000  0.81060000  0.62970000  1
  Si  Si21  1  0.69580000  0.31060000  0.62970000  1
  Si  Si22  1  0.80420000  0.81060000  0.62970000  1
  Si  Si23  1  0.30420000  0.31060000  0.62970000  1
  Si  Si24  1  0.80420000  0.81060000  0.87030000  1
  Si  Si25  1  0.30420000  0.31060000  0.87030000  1
  Si  Si26  1  0.19580000  0.81060000  0.87030000  1
  Si  Si27  1  0.69580000  0.31060000  0.87030000  1
  Si  Si28  1  0.80420000  0.18940000  0.37030000  1
  Si  Si29  1  0.30420000  0.68940000  0.37030000  1
  Si  Si30  1  0.19580000  0.18940000  0.37030000  1
  Si  Si31  1  0.69580000  0.68940000  0.37030000  1
  Si  Si32  1  0.20360000  0.26400000  0.06050000  1
  Si  Si33  1  0.70360000  0.76400000  0.06050000  1
  Si  Si34  1  0.79640000  0.26400000  0.06050000  1
  Si  Si35  1  0.29640000  0.76400000  0.06050000  1
  Si  Si36  1  0.20360000  0.73600000  0.56050000  1
  Si  Si37  1  0.70360000  0.23600000  0.56050000  1
  Si  Si38  1  0.79640000  0.73600000  0.56050000  1
  Si  Si39  1  0.29640000  0.23600000  0.56050000  1
  Si  Si40  1  0.79640000  0.73600000  0.93950000  1
  Si  Si41  1  0.29640000  0.23600000  0.93950000  1
  Si  Si42  1  0.20360000  0.73600000  0.93950000  1
  Si  Si43  1  0.70360000  0.23600000  0.93950000  1
  Si  Si44  1  0.79640000  0.26400000  0.43950000  1
  Si  Si45  1  0.29640000  0.76400000  0.43950000  1
  Si  Si46  1  0.20360000  0.26400000  0.43950000  1
  Si  Si47  1  0.70360000  0.76400000  0.43950000  1
  Si  Si48  1  0.31700000  0.01810000  0.06030000  1
  Si  Si49  1  0.81700000  0.51810000  0.06030000  1
  Si  Si50  1  0.68300000  0.01810000  0.06030000  1
  Si  Si51  1  0.18300000  0.51810000  0.06030000  1
  Si  Si52  1  0.31700000  0.98190000  0.56030000  1
  Si  Si53  1  0.81700000  0.48190000  0.56030000  1
  Si  Si54  1  0.68300000  0.98190000  0.56030000  1
  Si  Si55  1  0.18300000  0.48190000  0.56030000  1
  Si  Si56  1  0.68300000  0.98190000  0.93970000  1
  Si  Si57  1  0.18300000  0.48190000  0.93970000  1
  Si  Si58  1  0.31700000  0.98190000  0.93970000  1
  Si  Si59  1  0.81700000  0.48190000  0.93970000  1
  Si  Si60  1  0.68300000  0.01810000  0.43970000  1
  Si  Si61  1  0.18300000  0.51810000  0.43970000  1
  Si  Si62  1  0.31700000  0.01810000  0.43970000  1
  Si  Si63  1  0.81700000  0.51810000  0.43970000  1
  Si  Si64  1  0.30380000  0.31080000  0.02790000  1
  Si  Si65  1  0.80380000  0.81080000  0.02790000  1
  Si  Si66  1  0.69620000  0.31080000  0.02790000  1
  Si  Si67  1  0.19620000  0.81080000  0.02790000  1
  Si  Si68  1  0.30380000  0.68920000  0.52790000  1
  Si  Si69  1  0.80380000  0.18920000  0.52790000  1
  Si  Si70  1  0.69620000  0.68920000  0.52790000  1
  Si  Si71  1  0.19620000  0.18920000  0.52790000  1
  Si  Si72  1  0.69620000  0.68920000  0.97210000  1
  Si  Si73  1  0.19620000  0.18920000  0.97210000  1
  Si  Si74  1  0.30380000  0.68920000  0.97210000  1
  Si  Si75  1  0.80380000  0.18920000  0.97210000  1
  Si  Si76  1  0.69620000  0.31080000  0.47210000  1
  Si  Si77  1  0.19620000  0.81080000  0.47210000  1
  Si  Si78  1  0.30380000  0.31080000  0.47210000  1
  Si  Si79  1  0.80380000  0.81080000  0.47210000  1
  Si  Si80  1  0.29510000  0.36360000  0.05650000  1
  Si  Si81  1  0.79510000  0.86360000  0.05650000  1
  Si  Si82  1  0.70490000  0.36360000  0.05650000  1
  Si  Si83  1  0.20490000  0.86360000  0.05650000  1
  Si  Si84  1  0.29510000  0.63640000  0.55650000  1
  Si  Si85  1  0.79510000  0.13640000  0.55650000  1
  Si  Si86  1  0.70490000  0.63640000  0.55650000  1
  Si  Si87  1  0.20490000  0.13640000  0.55650000  1
  Si  Si88  1  0.70490000  0.63640000  0.94350000  1
  Si  Si89  1  0.20490000  0.13640000  0.94350000  1
  Si  Si90  1  0.29510000  0.63640000  0.94350000  1
  Si  Si91  1  0.79510000  0.13640000  0.94350000  1
  Si  Si92  1  0.70490000  0.36360000  0.44350000  1
  Si  Si93  1  0.20490000  0.86360000  0.44350000  1
  Si  Si94  1  0.29510000  0.36360000  0.44350000  1
  Si  Si95  1  0.79510000  0.86360000  0.44350000  1
  Si  Si96  1  0.30420000  0.43760000  0.12970000  1
  Si  Si97  1  0.80420000  0.93760000  0.12970000  1
  Si  Si98  1  0.69580000  0.43760000  0.12970000  1
  Si  Si99  1  0.19580000  0.93760000  0.12970000  1
  Si  Si100  1  0.30420000  0.56240000  0.62970000  1
  Si  Si101  1  0.80420000  0.06240000  0.62970000  1
  Si  Si102  1  0.69580000  0.56240000  0.62970000  1
  Si  Si103  1  0.19580000  0.06240000  0.62970000  1
  Si  Si104  1  0.69580000  0.56240000  0.87030000  1
  Si  Si105  1  0.19580000  0.06240000  0.87030000  1
  Si  Si106  1  0.30420000  0.56240000  0.87030000  1
  Si  Si107  1  0.80420000  0.06240000  0.87030000  1
  Si  Si108  1  0.69580000  0.43760000  0.37030000  1
  Si  Si109  1  0.19580000  0.93760000  0.37030000  1
  Si  Si110  1  0.30420000  0.43760000  0.37030000  1
  Si  Si111  1  0.80420000  0.93760000  0.37030000  1
  Si  Si112  1  0.20320000  0.39130000  0.17440000  1
  Si  Si113  1  0.70320000  0.89130000  0.17440000  1
  Si  Si114  1  0.79680000  0.39130000  0.17440000  1
  Si  Si115  1  0.29680000  0.89130000  0.17440000  1
  Si  Si116  1  0.20320000  0.60870000  0.67440000  1
  Si  Si117  1  0.70320000  0.10870000  0.67440000  1
  Si  Si118  1  0.79680000  0.60870000  0.67440000  1
  Si  Si119  1  0.29680000  0.10870000  0.67440000  1
  Si  Si120  1  0.79680000  0.60870000  0.82560000  1
  Si  Si121  1  0.29680000  0.10870000  0.82560000  1
  Si  Si122  1  0.20320000  0.60870000  0.82560000  1
  Si  Si123  1  0.70320000  0.10870000  0.82560000  1
  Si  Si124  1  0.79680000  0.39130000  0.32560000  1
  Si  Si125  1  0.29680000  0.89130000  0.32560000  1
  Si  Si126  1  0.20320000  0.39130000  0.32560000  1
  Si  Si127  1  0.70320000  0.89130000  0.32560000  1
  Si  Si128  1  0.18840000  0.48070000  0.17360000  1
  Si  Si129  1  0.68840000  0.98070000  0.17360000  1
  Si  Si130  1  0.81160000  0.48070000  0.17360000  1
  Si  Si131  1  0.31160000  0.98070000  0.17360000  1
  Si  Si132  1  0.18840000  0.51930000  0.67360000  1
  Si  Si133  1  0.68840000  0.01930000  0.67360000  1
  Si  Si134  1  0.81160000  0.51930000  0.67360000  1
  Si  Si135  1  0.31160000  0.01930000  0.67360000  1
  Si  Si136  1  0.81160000  0.51930000  0.82640000  1
  Si  Si137  1  0.31160000  0.01930000  0.82640000  1
  Si  Si138  1  0.18840000  0.51930000  0.82640000  1
  Si  Si139  1  0.68840000  0.01930000  0.82640000  1
  Si  Si140  1  0.81160000  0.48070000  0.32640000  1
  Si  Si141  1  0.31160000  0.98070000  0.32640000  1
  Si  Si142  1  0.18840000  0.48070000  0.32640000  1
  Si  Si143  1  0.68840000  0.98070000  0.32640000  1
  Si  Si144  1  0.29560000  0.10720000  0.06330000  1
  Si  Si145  1  0.79560000  0.60720000  0.06330000  1
  Si  Si146  1  0.70440000  0.10720000  0.06330000  1
  Si  Si147  1  0.20440000  0.60720000  0.06330000  1
  Si  Si148  1  0.29560000  0.89280000  0.56330000  1
  Si  Si149  1  0.79560000  0.39280000  0.56330000  1
  Si  Si150  1  0.70440000  0.89280000  0.56330000  1
  Si  Si151  1  0.20440000  0.39280000  0.56330000  1
  Si  Si152  1  0.70440000  0.89280000  0.93670000  1
  Si  Si153  1  0.20440000  0.39280000  0.93670000  1
  Si  Si154  1  0.29560000  0.89280000  0.93670000  1
  Si  Si155  1  0.79560000  0.39280000  0.93670000  1
  Si  Si156  1  0.70440000  0.10720000  0.43670000  1
  Si  Si157  1  0.20440000  0.60720000  0.43670000  1
  Si  Si158  1  0.29560000  0.10720000  0.43670000  1
  Si  Si159  1  0.79560000  0.60720000  0.43670000  1
  Si  Si160  1  0.29890000  0.23510000  0.17380000  1
  Si  Si161  1  0.79890000  0.73510000  0.17380000  1
  Si  Si162  1  0.70110000  0.23510000  0.17380000  1
  Si  Si163  1  0.20110000  0.73510000  0.17380000  1
  Si  Si164  1  0.29890000  0.76490000  0.67380000  1
  Si  Si165  1  0.79890000  0.26490000  0.67380000  1
  Si  Si166  1  0.70110000  0.76490000  0.67380000  1
  Si  Si167  1  0.20110000  0.26490000  0.67380000  1
  Si  Si168  1  0.70110000  0.76490000  0.82620000  1
  Si  Si169  1  0.20110000  0.26490000  0.82620000  1
  Si  Si170  1  0.29890000  0.76490000  0.82620000  1
  Si  Si171  1  0.79890000  0.26490000  0.82620000  1
  Si  Si172  1  0.70110000  0.23510000  0.32620000  1
  Si  Si173  1  0.20110000  0.73510000  0.32620000  1
  Si  Si174  1  0.29890000  0.23510000  0.32620000  1
  Si  Si175  1  0.79890000  0.73510000  0.32620000  1
  Si  Si176  1  0.20230000  0.13760000  0.17280000  1
  Si  Si177  1  0.70230000  0.63760000  0.17280000  1
  Si  Si178  1  0.79770000  0.13760000  0.17280000  1
  Si  Si179  1  0.29770000  0.63760000  0.17280000  1
  Si  Si180  1  0.20230000  0.86240000  0.67280000  1
  Si  Si181  1  0.70230000  0.36240000  0.67280000  1
  Si  Si182  1  0.79770000  0.86240000  0.67280000  1
  Si  Si183  1  0.29770000  0.36240000  0.67280000  1
  Si  Si184  1  0.79770000  0.86240000  0.82720000  1
  Si  Si185  1  0.29770000  0.36240000  0.82720000  1
  Si  Si186  1  0.20230000  0.86240000  0.82720000  1
  Si  Si187  1  0.70230000  0.36240000  0.82720000  1
  Si  Si188  1  0.79770000  0.13760000  0.32720000  1
  Si  Si189  1  0.29770000  0.63760000  0.32720000  1
  Si  Si190  1  0.20230000  0.13760000  0.32720000  1
  Si  Si191  1  0.70230000  0.63760000  0.32720000  1
  Si  Si192  1  0.50000000  0.41830000  0.55900000  1
  Si  Si193  1  0.00000000  0.91830000  0.55900000  1
  Si  Si194  1  0.50000000  0.58170000  0.05900000  1
  Si  Si195  1  0.00000000  0.08170000  0.05900000  1
  Si  Si196  1  0.50000000  0.58170000  0.44100000  1
  Si  Si197  1  0.00000000  0.08170000  0.44100000  1
  Si  Si198  1  0.50000000  0.41830000  0.94100000  1
  Si  Si199  1  0.00000000  0.91830000  0.94100000  1
  Si  Si200  1  0.50000000  0.25420000  0.94070000  1
  Si  Si201  1  0.00000000  0.75420000  0.94070000  1
  Si  Si202  1  0.50000000  0.74580000  0.44070000  1
  Si  Si203  1  0.00000000  0.24580000  0.44070000  1
  Si  Si204  1  0.50000000  0.74580000  0.05930000  1
  Si  Si205  1  0.00000000  0.24580000  0.05930000  1
  Si  Si206  1  0.50000000  0.25420000  0.55930000  1
  Si  Si207  1  0.00000000  0.75420000  0.55930000  1
  Si  Si208  1  0.50000000  0.29120000  0.43920000  1
  Si  Si209  1  0.00000000  0.79120000  0.43920000  1
  Si  Si210  1  0.50000000  0.70880000  0.93920000  1
  Si  Si211  1  0.00000000  0.20880000  0.93920000  1
  Si  Si212  1  0.50000000  0.70880000  0.56080000  1
  Si  Si213  1  0.00000000  0.20880000  0.56080000  1
  Si  Si214  1  0.50000000  0.29120000  0.06080000  1
  Si  Si215  1  0.00000000  0.79120000  0.06080000  1
  Si  Si216  1  0.50000000  0.38070000  0.05950000  1
  Si  Si217  1  0.00000000  0.88070000  0.05950000  1
  Si  Si218  1  0.50000000  0.61930000  0.55950000  1
  Si  Si219  1  0.00000000  0.11930000  0.55950000  1
  Si  Si220  1  0.50000000  0.61930000  0.94050000  1
  Si  Si221  1  0.00000000  0.11930000  0.94050000  1
  Si  Si222  1  0.50000000  0.38070000  0.44050000  1
  Si  Si223  1  0.00000000  0.88070000  0.44050000  1
  Si  Si224  1  0.50000000  0.41740000  0.17330000  1
  Si  Si225  1  0.00000000  0.91740000  0.17330000  1
  Si  Si226  1  0.50000000  0.58260000  0.67330000  1
  Si  Si227  1  0.00000000  0.08260000  0.67330000  1
  Si  Si228  1  0.50000000  0.58260000  0.82670000  1
  Si  Si229  1  0.00000000  0.08260000  0.82670000  1
  Si  Si230  1  0.50000000  0.41740000  0.32670000  1
  Si  Si231  1  0.00000000  0.91740000  0.32670000  1
  Si  Si232  1  0.50000000  0.29140000  0.67370000  1
  Si  Si233  1  0.00000000  0.79140000  0.67370000  1
  Si  Si234  1  0.50000000  0.70860000  0.17370000  1
  Si  Si235  1  0.00000000  0.20860000  0.17370000  1
  Si  Si236  1  0.50000000  0.70860000  0.32630000  1
  Si  Si237  1  0.00000000  0.20860000  0.32630000  1
  Si  Si238  1  0.50000000  0.29140000  0.82630000  1
  Si  Si239  1  0.00000000  0.79140000  0.82630000  1
  Si  Si240  1  0.50000000  0.38120000  0.67420000  1
  Si  Si241  1  0.00000000  0.88120000  0.67420000  1
  Si  Si242  1  0.50000000  0.61880000  0.17420000  1
  Si  Si243  1  0.00000000  0.11880000  0.17420000  1
  Si  Si244  1  0.50000000  0.61880000  0.32580000  1
  Si  Si245  1  0.00000000  0.11880000  0.32580000  1
  Si  Si246  1  0.50000000  0.38120000  0.82580000  1
  Si  Si247  1  0.00000000  0.88120000  0.82580000  1
  Si  Si248  1  0.50000000  0.10020000  0.62820000  1
  Si  Si249  1  0.00000000  0.60020000  0.62820000  1
  Si  Si250  1  0.50000000  0.89980000  0.12820000  1
  Si  Si251  1  0.00000000  0.39980000  0.12820000  1
  Si  Si252  1  0.50000000  0.89980000  0.37180000  1
  Si  Si253  1  0.00000000  0.39980000  0.37180000  1
  Si  Si254  1  0.50000000  0.10020000  0.87180000  1
  Si  Si255  1  0.00000000  0.60020000  0.87180000  1
  Si  Si256  1  0.50000000  0.04360000  0.62620000  1
  Si  Si257  1  0.00000000  0.54360000  0.62620000  1
  Si  Si258  1  0.50000000  0.95640000  0.12620000  1
  Si  Si259  1  0.00000000  0.45640000  0.12620000  1
  Si  Si260  1  0.50000000  0.95640000  0.37380000  1
  Si  Si261  1  0.00000000  0.45640000  0.37380000  1
  Si  Si262  1  0.50000000  0.04360000  0.87380000  1
  Si  Si263  1  0.00000000  0.54360000  0.87380000  1
  Si  Si264  1  0.50000000  0.04420000  0.02580000  1
  Si  Si265  1  0.00000000  0.54420000  0.02580000  1
  Si  Si266  1  0.50000000  0.95580000  0.52580000  1
  Si  Si267  1  0.00000000  0.45580000  0.52580000  1
  Si  Si268  1  0.50000000  0.95580000  0.97420000  1
  Si  Si269  1  0.00000000  0.45580000  0.97420000  1
  Si  Si270  1  0.50000000  0.04420000  0.47420000  1
  Si  Si271  1  0.00000000  0.54420000  0.47420000  1
  Si  Si272  1  0.50000000  0.10070000  0.02380000  1
  Si  Si273  1  0.00000000  0.60070000  0.02380000  1
  Si  Si274  1  0.50000000  0.89930000  0.52380000  1
  Si  Si275  1  0.00000000  0.39930000  0.52380000  1
  Si  Si276  1  0.50000000  0.89930000  0.97620000  1
  Si  Si277  1  0.00000000  0.39930000  0.97620000  1
  Si  Si278  1  0.50000000  0.10070000  0.47620000  1
  Si  Si279  1  0.00000000  0.60070000  0.47620000  1
  Si  Si280  1  0.50000000  0.25350000  0.17310000  1
  Si  Si281  1  0.00000000  0.75350000  0.17310000  1
  Si  Si282  1  0.50000000  0.74650000  0.67310000  1
  Si  Si283  1  0.00000000  0.24650000  0.67310000  1
  Si  Si284  1  0.50000000  0.74650000  0.82690000  1
  Si  Si285  1  0.00000000  0.24650000  0.82690000  1
  Si  Si286  1  0.50000000  0.25350000  0.32690000  1
  Si  Si287  1  0.00000000  0.75350000  0.32690000  1
