# generated using pymatgen
data_SiO4
_symmetry_space_group_name_H-M   'P 1'
_cell_length_a   11.88700000
_cell_length_b   11.88700000
_cell_length_c   29.91500000
_cell_angle_alpha   90.00000000
_cell_angle_beta   90.00000000
_cell_angle_gamma   120.00000000
_symmetry_Int_Tables_number   1
_chemical_formula_structural   SiO4
_chemical_formula_sum   'Si1 O4'
_cell_volume   3660.70021113
_cell_formula_units_Z   1
loop_
 _symmetry_equiv_pos_site_id
 _symmetry_equiv_pos_as_xyz
  1  'x, y, z'
loop_
 _atom_site_type_symbol
 _atom_site_label
 _atom_site_symmetry_multiplicity
 _atom_site_fract_x
 _atom_site_fract_y
 _atom_site_fract_z
 _atom_site_occupancy
  Si  Si0  1  0.39420000  0.29970000  0.48253333  1
  O  O1  1  0.30830000  0.20810000  0.52320000  1
  O  O2  1  0.53720000  0.31690000  0.48460000  1
  O  O3  1  0.32460000  0.23110000  0.43623333  1
  O  O4  1  0.40630000  0.44060000  0.48580000  1
