# generated using pymatgen
data_Si
_symmetry_space_group_name_H-M   'P 1'
_cell_length_a   11.88700000
_cell_length_b   11.88700000
_cell_length_c   29.91500000
_cell_angle_alpha   90.00000000
_cell_angle_beta   90.00000000
_cell_angle_gamma   120.00000000
_symmetry_Int_Tables_number   1
_chemical_formula_structural   Si
_chemical_formula_sum   Si60
_cell_volume   3660.70021113
_cell_formula_units_Z   60
loop_
 _symmetry_equiv_pos_site_id
 _symmetry_equiv_pos_as_xyz
  1  'x, y, z'
loop_
 _atom_site_type_symbol
 _atom_site_label
 _atom_site_symmetry_multiplicity
 _atom_site_fract_x
 _atom_site_fract_y
 _atom_site_fract_z
 _atom_site_occupancy
  Si  Si0  1  0.69170000  0.37480000  0.03380000  1
  Si  Si1  1  0.62520000  0.31690000  0.36713333  1
  Si  Si2  1  0.68310000  0.30830000  0.70046667  1
  Si  Si3  1  0.30830000  0.62520000  0.53380000  1
  Si  Si4  1  0.37480000  0.68310000  0.86713333  1
  Si  Si5  1  0.31690000  0.69170000  0.20046667  1
  Si  Si6  1  0.37480000  0.69170000  0.29953333  1
  Si  Si7  1  0.31690000  0.62520000  0.96620000  1
  Si  Si8  1  0.30830000  0.68310000  0.63286667  1
  Si  Si9  1  0.62520000  0.30830000  0.79953333  1
  Si  Si10  1  0.68310000  0.37480000  0.46620000  1
  Si  Si11  1  0.69170000  0.31690000  0.13286667  1
  Si  Si12  1  0.53180000  0.41380000  0.96670000  1
  Si  Si13  1  0.58620000  0.11800000  0.30003333  1
  Si  Si14  1  0.88200000  0.46820000  0.63336667  1
  Si  Si15  1  0.46820000  0.58620000  0.46670000  1
  Si  Si16  1  0.41380000  0.88200000  0.80003333  1
  Si  Si17  1  0.11800000  0.53180000  0.13336667  1
  Si  Si18  1  0.41380000  0.53180000  0.36663333  1
  Si  Si19  1  0.11800000  0.58620000  0.03330000  1
  Si  Si20  1  0.46820000  0.88200000  0.69996667  1
  Si  Si21  1  0.58620000  0.46820000  0.86663333  1
  Si  Si22  1  0.88200000  0.41380000  0.53330000  1
  Si  Si23  1  0.53180000  0.11800000  0.19996667  1
  Si  Si24  1  0.29970000  0.39420000  0.85080000  1
  Si  Si25  1  0.60580000  0.90550000  0.18413333  1
  Si  Si26  1  0.09450000  0.70030000  0.51746667  1
  Si  Si27  1  0.70030000  0.60580000  0.35080000  1
  Si  Si28  1  0.39420000  0.09450000  0.68413333  1
  Si  Si29  1  0.90550000  0.29970000  0.01746667  1
  Si  Si30  1  0.39420000  0.29970000  0.48253333  1
  Si  Si31  1  0.90550000  0.60580000  0.14920000  1
  Si  Si32  1  0.70030000  0.09450000  0.81586667  1
  Si  Si33  1  0.60580000  0.70030000  0.98253333  1
  Si  Si34  1  0.09450000  0.39420000  0.64920000  1
  Si  Si35  1  0.29970000  0.90550000  0.31586667  1
  Si  Si36  1  0.24320000  0.33800000  0.95060000  1
  Si  Si37  1  0.66200000  0.90520000  0.28393333  1
  Si  Si38  1  0.09480000  0.75680000  0.61726667  1
  Si  Si39  1  0.75680000  0.66200000  0.45060000  1
  Si  Si40  1  0.33800000  0.09480000  0.78393333  1
  Si  Si41  1  0.90520000  0.24320000  0.11726667  1
  Si  Si42  1  0.33800000  0.24320000  0.38273333  1
  Si  Si43  1  0.90520000  0.66200000  0.04940000  1
  Si  Si44  1  0.75680000  0.09480000  0.71606667  1
  Si  Si45  1  0.66200000  0.75680000  0.88273333  1
  Si  Si46  1  0.09480000  0.33800000  0.54940000  1
  Si  Si47  1  0.24320000  0.90520000  0.21606667  1
  Si  Si48  1  0.96700000  0.12210000  0.96660000  1
  Si  Si49  1  0.87790000  0.84490000  0.29993333  1
  Si  Si50  1  0.15510000  0.03300000  0.63326667  1
  Si  Si51  1  0.03300000  0.87790000  0.46660000  1
  Si  Si52  1  0.12210000  0.15510000  0.79993333  1
  Si  Si53  1  0.84490000  0.96700000  0.13326667  1
  Si  Si54  1  0.12210000  0.96700000  0.36673333  1
  Si  Si55  1  0.84490000  0.87790000  0.03340000  1
  Si  Si56  1  0.03300000  0.15510000  0.70006667  1
  Si  Si57  1  0.87790000  0.03300000  0.86673333  1
  Si  Si58  1  0.15510000  0.12210000  0.53340000  1
  Si  Si59  1  0.96700000  0.84490000  0.20006667  1
