# generated using pymatgen
data_O2
_symmetry_space_group_name_H-M   'P 1'
_cell_length_a   11.88700000
_cell_length_b   11.88700000
_cell_length_c   29.91500000
_cell_angle_alpha   90.00000000
_cell_angle_beta   90.00000000
_cell_angle_gamma   120.00000000
_symmetry_Int_Tables_number   1
_chemical_formula_structural   O2
_chemical_formula_sum   O120
_cell_volume   3660.70021113
_cell_formula_units_Z   60
loop_
 _symmetry_equiv_pos_site_id
 _symmetry_equiv_pos_as_xyz
  1  'x, y, z'
loop_
 _atom_site_type_symbol
 _atom_site_label
 _atom_site_symmetry_multiplicity
 _atom_site_fract_x
 _atom_site_fract_y
 _atom_site_fract_z
 _atom_site_occupancy
  O  O0  1  0.91280000  0.00000000  0.00000000  1
  O  O1  1  0.00000000  0.91280000  0.33333333  1
  O  O2  1  0.08720000  0.08720000  0.66666667  1
  O  O3  1  0.08720000  0.00000000  0.50000000  1
  O  O4  1  0.00000000  0.08720000  0.83333333  1
  O  O5  1  0.91280000  0.91280000  0.16666667  1
  O  O6  1  0.33280000  0.57260000  0.33370000  1
  O  O7  1  0.42740000  0.76020000  0.66703333  1
  O  O8  1  0.23980000  0.66720000  0.00036667  1
  O  O9  1  0.66720000  0.42740000  0.83370000  1
  O  O10  1  0.57260000  0.23980000  0.16703333  1
  O  O11  1  0.76020000  0.33280000  0.50036667  1
  O  O12  1  0.57260000  0.33280000  0.99963333  1
  O  O13  1  0.76020000  0.42740000  0.66630000  1
  O  O14  1  0.66720000  0.23980000  0.33296667  1
  O  O15  1  0.42740000  0.66720000  0.49963333  1
  O  O16  1  0.23980000  0.57260000  0.16630000  1
  O  O17  1  0.33280000  0.76020000  0.83296667  1
  O  O18  1  0.12160000  0.21290000  0.97280000  1
  O  O19  1  0.78710000  0.90870000  0.30613333  1
  O  O20  1  0.09130000  0.87840000  0.63946667  1
  O  O21  1  0.87840000  0.78710000  0.47280000  1
  O  O22  1  0.21290000  0.09130000  0.80613333  1
  O  O23  1  0.90870000  0.12160000  0.13946667  1
  O  O24  1  0.21290000  0.12160000  0.36053333  1
  O  O25  1  0.90870000  0.78710000  0.02720000  1
  O  O26  1  0.87840000  0.09130000  0.69386667  1
  O  O27  1  0.78710000  0.87840000  0.86053333  1
  O  O28  1  0.09130000  0.21290000  0.52720000  1
  O  O29  1  0.12160000  0.90870000  0.19386667  1
  O  O30  1  0.93440000  0.06560000  0.91670000  1
  O  O31  1  0.93440000  0.86880000  0.25003333  1
  O  O32  1  0.13120000  0.06560000  0.58336667  1
  O  O33  1  0.06560000  0.93440000  0.41670000  1
  O  O34  1  0.06560000  0.13120000  0.75003333  1
  O  O35  1  0.86880000  0.93440000  0.08336667  1
  O  O36  1  0.89980000  0.20810000  0.97680000  1
  O  O37  1  0.79190000  0.69170000  0.31013333  1
  O  O38  1  0.30830000  0.10020000  0.64346667  1
  O  O39  1  0.10020000  0.79190000  0.47680000  1
  O  O40  1  0.20810000  0.30830000  0.81013333  1
  O  O41  1  0.69170000  0.89980000  0.14346667  1
  O  O42  1  0.20810000  0.89980000  0.35653333  1
  O  O43  1  0.69170000  0.79190000  0.02320000  1
  O  O44  1  0.10020000  0.30830000  0.68986667  1
  O  O45  1  0.79190000  0.10020000  0.85653333  1
  O  O46  1  0.30830000  0.20810000  0.52320000  1
  O  O47  1  0.89980000  0.69170000  0.18986667  1
  O  O48  1  0.64020000  0.32010000  0.08330000  1
  O  O49  1  0.67990000  0.32010000  0.41663333  1
  O  O50  1  0.67990000  0.35980000  0.74996667  1
  O  O51  1  0.35980000  0.67990000  0.58330000  1
  O  O52  1  0.32010000  0.67990000  0.91663333  1
  O  O53  1  0.32010000  0.64020000  0.24996667  1
  O  O54  1  0.37580000  0.34460000  0.96640000  1
  O  O55  1  0.65540000  0.03120000  0.29973333  1
  O  O56  1  0.96880000  0.62420000  0.63306667  1
  O  O57  1  0.62420000  0.65540000  0.46640000  1
  O  O58  1  0.34460000  0.96880000  0.79973333  1
  O  O59  1  0.03120000  0.37580000  0.13306667  1
  O  O60  1  0.34460000  0.37580000  0.36693333  1
  O  O61  1  0.03120000  0.65540000  0.03360000  1
  O  O62  1  0.62420000  0.96880000  0.70026667  1
  O  O63  1  0.65540000  0.62420000  0.86693333  1
  O  O64  1  0.96880000  0.34460000  0.53360000  1
  O  O65  1  0.37580000  0.03120000  0.20026667  1
  O  O66  1  0.77970000  0.31690000  0.01540000  1
  O  O67  1  0.68310000  0.46280000  0.34873333  1
  O  O68  1  0.53720000  0.22030000  0.68206667  1
  O  O69  1  0.22030000  0.68310000  0.51540000  1
  O  O70  1  0.31690000  0.53720000  0.84873333  1
  O  O71  1  0.46280000  0.77970000  0.18206667  1
  O  O72  1  0.31690000  0.77970000  0.31793333  1
  O  O73  1  0.46280000  0.68310000  0.98460000  1
  O  O74  1  0.22030000  0.53720000  0.65126667  1
  O  O75  1  0.68310000  0.22030000  0.81793333  1
  O  O76  1  0.53720000  0.31690000  0.48460000  1
  O  O77  1  0.77970000  0.46280000  0.15126667  1
  O  O78  1  0.77520000  0.53100000  0.03480000  1
  O  O79  1  0.46900000  0.24420000  0.36813333  1
  O  O80  1  0.75580000  0.22480000  0.70146667  1
  O  O81  1  0.22480000  0.46900000  0.53480000  1
  O  O82  1  0.53100000  0.75580000  0.86813333  1
  O  O83  1  0.24420000  0.77520000  0.20146667  1
  O  O84  1  0.53100000  0.77520000  0.29853333  1
  O  O85  1  0.24420000  0.46900000  0.96520000  1
  O  O86  1  0.22480000  0.75580000  0.63186667  1
  O  O87  1  0.46900000  0.22480000  0.79853333  1
  O  O88  1  0.75580000  0.53100000  0.46520000  1
  O  O89  1  0.77520000  0.24420000  0.13186667  1
  O  O90  1  0.23110000  0.32460000  0.89710000  1
  O  O91  1  0.67540000  0.90650000  0.23043333  1
  O  O92  1  0.09350000  0.76890000  0.56376667  1
  O  O93  1  0.76890000  0.67540000  0.39710000  1
  O  O94  1  0.32460000  0.09350000  0.73043333  1
  O  O95  1  0.90650000  0.23110000  0.06376667  1
  O  O96  1  0.32460000  0.23110000  0.43623333  1
  O  O97  1  0.90650000  0.67540000  0.10290000  1
  O  O98  1  0.76890000  0.09350000  0.76956667  1
  O  O99  1  0.67540000  0.76890000  0.93623333  1
  O  O100  1  0.09350000  0.32460000  0.60290000  1
  O  O101  1  0.23110000  0.90650000  0.26956667  1
  O  O102  1  0.59370000  0.55940000  0.98580000  1
  O  O103  1  0.44060000  0.03430000  0.31913333  1
  O  O104  1  0.96570000  0.40630000  0.65246667  1
  O  O105  1  0.40630000  0.44060000  0.48580000  1
  O  O106  1  0.55940000  0.96570000  0.81913333  1
  O  O107  1  0.03430000  0.59370000  0.15246667  1
  O  O108  1  0.55940000  0.59370000  0.34753333  1
  O  O109  1  0.03430000  0.44060000  0.01420000  1
  O  O110  1  0.40630000  0.96570000  0.68086667  1
  O  O111  1  0.44060000  0.40630000  0.84753333  1
  O  O112  1  0.96570000  0.55940000  0.51420000  1
  O  O113  1  0.59370000  0.03430000  0.18086667  1
  O  O114  1  0.58370000  0.41630000  0.91670000  1
  O  O115  1  0.58370000  0.16740000  0.25003333  1
  O  O116  1  0.83260000  0.41630000  0.58336667  1
  O  O117  1  0.41630000  0.58370000  0.41670000  1
  O  O118  1  0.41630000  0.83260000  0.75003333  1
  O  O119  1  0.16740000  0.58370000  0.08336667  1
