# generated using pymatgen
data_SiO4
_symmetry_space_group_name_H-M   'P 1'
_cell_length_a   12.39200000
_cell_length_b   12.39200000
_cell_length_c   30.46900000
_cell_angle_alpha   90.00000000
_cell_angle_beta   90.00000000
_cell_angle_gamma   120.00000000
_symmetry_Int_Tables_number   1
_chemical_formula_structural   SiO4
_chemical_formula_sum   'Si1 O4'
_cell_volume   4052.02057581
_cell_formula_units_Z   1
loop_
 _symmetry_equiv_pos_site_id
 _symmetry_equiv_pos_as_xyz
  1  'x, y, z'
loop_
 _atom_site_type_symbol
 _atom_site_label
 _atom_site_symmetry_multiplicity
 _atom_site_fract_x
 _atom_site_fract_y
 _atom_site_fract_z
 _atom_site_occupancy
  Si  Si0  1  0.41240000  0.07710000  0.67180000  1
  O  O1  1  0.37190000  0.02450000  0.62270000  1
  O  O2  1  0.54750000  0.09500000  0.68270000  1
  O  O3  1  0.41870000  0.20930000  0.67650000  1
  O  O4  1  0.31300000  -0.01910000  0.70670000  1
