# generated using pymatgen
data_O2
_symmetry_space_group_name_H-M   'P 1'
_cell_length_a   12.39200000
_cell_length_b   12.39200000
_cell_length_c   30.46900000
_cell_angle_alpha   90.00000000
_cell_angle_beta   90.00000000
_cell_angle_gamma   120.00000000
_symmetry_Int_Tables_number   1
_chemical_formula_structural   O2
_chemical_formula_sum   O156
_cell_volume   4052.02057581
_cell_formula_units_Z   78
loop_
 _symmetry_equiv_pos_site_id
 _symmetry_equiv_pos_as_xyz
  1  'x, y, z'
loop_
 _atom_site_type_symbol
 _atom_site_label
 _atom_site_symmetry_multiplicity
 _atom_site_fract_x
 _atom_site_fract_y
 _atom_site_fract_z
 _atom_site_occupancy
  O  O0  1  0.11630000  0.88370000  0.01360000  1
  O  O1  1  0.11630000  0.23260000  0.01360000  1
  O  O2  1  0.76740000  0.88370000  0.01360000  1
  O  O3  1  0.88370000  0.11630000  0.51360000  1
  O  O4  1  0.88370000  0.76740000  0.51360000  1
  O  O5  1  0.23260000  0.11630000  0.51360000  1
  O  O6  1  0.88370000  0.11630000  0.98640000  1
  O  O7  1  0.88370000  0.76740000  0.98640000  1
  O  O8  1  0.23260000  0.11630000  0.98640000  1
  O  O9  1  0.11630000  0.88370000  0.48640000  1
  O  O10  1  0.11630000  0.23260000  0.48640000  1
  O  O11  1  0.76740000  0.88370000  0.48640000  1
  O  O12  1  0.02450000  0.65260000  0.12270000  1
  O  O13  1  0.34740000  0.37190000  0.12270000  1
  O  O14  1  0.62810000  0.97550000  0.12270000  1
  O  O15  1  0.97550000  0.34740000  0.62270000  1
  O  O16  1  0.65260000  0.62810000  0.62270000  1
  O  O17  1  0.37190000  0.02450000  0.62270000  1
  O  O18  1  0.34740000  0.97550000  0.12270000  1
  O  O19  1  0.62810000  0.65260000  0.12270000  1
  O  O20  1  0.02450000  0.37190000  0.12270000  1
  O  O21  1  0.65260000  0.02450000  0.62270000  1
  O  O22  1  0.37190000  0.34740000  0.62270000  1
  O  O23  1  0.97550000  0.62810000  0.62270000  1
  O  O24  1  0.97550000  0.34740000  0.87730000  1
  O  O25  1  0.65260000  0.62810000  0.87730000  1
  O  O26  1  0.37190000  0.02450000  0.87730000  1
  O  O27  1  0.02450000  0.65260000  0.37730000  1
  O  O28  1  0.34740000  0.37190000  0.37730000  1
  O  O29  1  0.62810000  0.97550000  0.37730000  1
  O  O30  1  0.65260000  0.02450000  0.87730000  1
  O  O31  1  0.37190000  0.34740000  0.87730000  1
  O  O32  1  0.97550000  0.62810000  0.87730000  1
  O  O33  1  0.34740000  0.97550000  0.37730000  1
  O  O34  1  0.62810000  0.65260000  0.37730000  1
  O  O35  1  0.02450000  0.37190000  0.37730000  1
  O  O36  1  0.88320000  0.44160000  0.08090000  1
  O  O37  1  0.55840000  0.44160000  0.08090000  1
  O  O38  1  0.55840000  0.11680000  0.08090000  1
  O  O39  1  0.11680000  0.55840000  0.58090000  1
  O  O40  1  0.44160000  0.55840000  0.58090000  1
  O  O41  1  0.44160000  0.88320000  0.58090000  1
  O  O42  1  0.11680000  0.55840000  0.91910000  1
  O  O43  1  0.44160000  0.55840000  0.91910000  1
  O  O44  1  0.44160000  0.88320000  0.91910000  1
  O  O45  1  0.88320000  0.44160000  0.41910000  1
  O  O46  1  0.55840000  0.44160000  0.41910000  1
  O  O47  1  0.55840000  0.11680000  0.41910000  1
  O  O48  1  0.79290000  0.58590000  0.10300000  1
  O  O49  1  0.41410000  0.20700000  0.10300000  1
  O  O50  1  0.79300000  0.20710000  0.10300000  1
  O  O51  1  0.20710000  0.41410000  0.60300000  1
  O  O52  1  0.58590000  0.79300000  0.60300000  1
  O  O53  1  0.20700000  0.79290000  0.60300000  1
  O  O54  1  0.20710000  0.41410000  0.89700000  1
  O  O55  1  0.58590000  0.79300000  0.89700000  1
  O  O56  1  0.20700000  0.79290000  0.89700000  1
  O  O57  1  0.79290000  0.58590000  0.39700000  1
  O  O58  1  0.41410000  0.20700000  0.39700000  1
  O  O59  1  0.79300000  0.20710000  0.39700000  1
  O  O60  1  0.45250000  0.54750000  0.18270000  1
  O  O61  1  0.45250000  0.90500000  0.18270000  1
  O  O62  1  0.09500000  0.54750000  0.18270000  1
  O  O63  1  0.54750000  0.45250000  0.68270000  1
  O  O64  1  0.54750000  0.09500000  0.68270000  1
  O  O65  1  0.90500000  0.45250000  0.68270000  1
  O  O66  1  0.54750000  0.45250000  0.81730000  1
  O  O67  1  0.54750000  0.09500000  0.81730000  1
  O  O68  1  0.90500000  0.45250000  0.81730000  1
  O  O69  1  0.45250000  0.54750000  0.31730000  1
  O  O70  1  0.45250000  0.90500000  0.31730000  1
  O  O71  1  0.09500000  0.54750000  0.31730000  1
  O  O72  1  0.58130000  0.79060000  0.17650000  1
  O  O73  1  0.20940000  0.79070000  0.17650000  1
  O  O74  1  0.20930000  0.41870000  0.17650000  1
  O  O75  1  0.41870000  0.20940000  0.67650000  1
  O  O76  1  0.79060000  0.20930000  0.67650000  1
  O  O77  1  0.79070000  0.58130000  0.67650000  1
  O  O78  1  0.20940000  0.41870000  0.17650000  1
  O  O79  1  0.20930000  0.79060000  0.17650000  1
  O  O80  1  0.58130000  0.79070000  0.17650000  1
  O  O81  1  0.79060000  0.58130000  0.67650000  1
  O  O82  1  0.79070000  0.20940000  0.67650000  1
  O  O83  1  0.41870000  0.20930000  0.67650000  1
  O  O84  1  0.41870000  0.20940000  0.82350000  1
  O  O85  1  0.79060000  0.20930000  0.82350000  1
  O  O86  1  0.79070000  0.58130000  0.82350000  1
  O  O87  1  0.58130000  0.79060000  0.32350000  1
  O  O88  1  0.20940000  0.79070000  0.32350000  1
  O  O89  1  0.20930000  0.41870000  0.32350000  1
  O  O90  1  0.79060000  0.58130000  0.82350000  1
  O  O91  1  0.79070000  0.20940000  0.82350000  1
  O  O92  1  0.41870000  0.20930000  0.82350000  1
  O  O93  1  0.20940000  0.41870000  0.32350000  1
  O  O94  1  0.20930000  0.79060000  0.32350000  1
  O  O95  1  0.58130000  0.79070000  0.32350000  1
  O  O96  1  0.68700000  0.66790000  0.20670000  1
  O  O97  1  0.33210000  0.01910000  0.20670000  1
  O  O98  1  0.98090000  0.31300000  0.20670000  1
  O  O99  1  0.31300000  0.33210000  0.70670000  1
  O  O100  1  0.66790000  0.98090000  0.70670000  1
  O  O101  1  0.01910000  0.68700000  0.70670000  1
  O  O102  1  0.33210000  0.31300000  0.20670000  1
  O  O103  1  0.98090000  0.66790000  0.20670000  1
  O  O104  1  0.68700000  0.01910000  0.20670000  1
  O  O105  1  0.66790000  0.68700000  0.70670000  1
  O  O106  1  0.01910000  0.33210000  0.70670000  1
  O  O107  1  0.31300000  0.98090000  0.70670000  1
  O  O108  1  0.31300000  0.33210000  0.79330000  1
  O  O109  1  0.66790000  0.98090000  0.79330000  1
  O  O110  1  0.01910000  0.68700000  0.79330000  1
  O  O111  1  0.68700000  0.66790000  0.29330000  1
  O  O112  1  0.33210000  0.01910000  0.29330000  1
  O  O113  1  0.98090000  0.31300000  0.29330000  1
  O  O114  1  0.66790000  0.68700000  0.79330000  1
  O  O115  1  0.01910000  0.33210000  0.79330000  1
  O  O116  1  0.31300000  0.98090000  0.79330000  1
  O  O117  1  0.33210000  0.31300000  0.29330000  1
  O  O118  1  0.98090000  0.66790000  0.29330000  1
  O  O119  1  0.68700000  0.01910000  0.29330000  1
  O  O120  1  0.46950000  0.93900000  0.75000000  1
  O  O121  1  0.06100000  0.53050000  0.75000000  1
  O  O122  1  0.46950000  0.53050000  0.75000000  1
  O  O123  1  0.53050000  0.06100000  0.25000000  1
  O  O124  1  0.93900000  0.46950000  0.25000000  1
  O  O125  1  0.53050000  0.46950000  0.25000000  1
  O  O126  1  0.53870000  0.76930000  0.75000000  1
  O  O127  1  0.23070000  0.76940000  0.75000000  1
  O  O128  1  0.23060000  0.46130000  0.75000000  1
  O  O129  1  0.46130000  0.23070000  0.25000000  1
  O  O130  1  0.76930000  0.23060000  0.25000000  1
  O  O131  1  0.76940000  0.53870000  0.25000000  1
  O  O132  1  0.96130000  0.65590000  0.04080000  1
  O  O133  1  0.34410000  0.30540000  0.04080000  1
  O  O134  1  0.69460000  0.03870000  0.04080000  1
  O  O135  1  0.03870000  0.34410000  0.54080000  1
  O  O136  1  0.65590000  0.69460000  0.54080000  1
  O  O137  1  0.30540000  0.96130000  0.54080000  1
  O  O138  1  0.34410000  0.03870000  0.04080000  1
  O  O139  1  0.69460000  0.65590000  0.04080000  1
  O  O140  1  0.96130000  0.30540000  0.04080000  1
  O  O141  1  0.65590000  0.96130000  0.54080000  1
  O  O142  1  0.30540000  0.34410000  0.54080000  1
  O  O143  1  0.03870000  0.69460000  0.54080000  1
  O  O144  1  0.03870000  0.34410000  0.95920000  1
  O  O145  1  0.65590000  0.69460000  0.95920000  1
  O  O146  1  0.30540000  0.96130000  0.95920000  1
  O  O147  1  0.96130000  0.65590000  0.45920000  1
  O  O148  1  0.34410000  0.30540000  0.45920000  1
  O  O149  1  0.69460000  0.03870000  0.45920000  1
  O  O150  1  0.65590000  0.96130000  0.95920000  1
  O  O151  1  0.30540000  0.34410000  0.95920000  1
  O  O152  1  0.03870000  0.69460000  0.95920000  1
  O  O153  1  0.34410000  0.03870000  0.45920000  1
  O  O154  1  0.69460000  0.65590000  0.45920000  1
  O  O155  1  0.96130000  0.30540000  0.45920000  1
