# generated using pymatgen
data_O2
_symmetry_space_group_name_H-M   'P 1'
_cell_length_a   13.91400000
_cell_length_b   13.91400000
_cell_length_c   30.84400000
_cell_angle_alpha   90.00000000
_cell_angle_beta   90.00000000
_cell_angle_gamma   90.00000000
_symmetry_Int_Tables_number   1
_chemical_formula_structural   O2
_chemical_formula_sum   O152
_cell_volume   5971.37977022
_cell_formula_units_Z   76
loop_
 _symmetry_equiv_pos_site_id
 _symmetry_equiv_pos_as_xyz
  1  'x, y, z'
loop_
 _atom_site_type_symbol
 _atom_site_label
 _atom_site_symmetry_multiplicity
 _atom_site_fract_x
 _atom_site_fract_y
 _atom_site_fract_z
 _atom_site_occupancy
  O  O0  1  0.50000000  0.00000000  0.35300000  1
  O  O1  1  0.00000000  0.50000000  0.85300000  1
  O  O2  1  0.00000000  0.50000000  0.35300000  1
  O  O3  1  0.50000000  0.00000000  0.85300000  1
  O  O4  1  0.50000000  0.00000000  0.64700000  1
  O  O5  1  0.00000000  0.50000000  0.14700000  1
  O  O6  1  0.00000000  0.50000000  0.64700000  1
  O  O7  1  0.50000000  0.00000000  0.14700000  1
  O  O8  1  0.13400000  0.00000000  0.00000000  1
  O  O9  1  0.63400000  0.50000000  0.50000000  1
  O  O10  1  0.00000000  0.13400000  0.00000000  1
  O  O11  1  0.50000000  0.63400000  0.50000000  1
  O  O12  1  0.86600000  0.00000000  0.00000000  1
  O  O13  1  0.36600000  0.50000000  0.50000000  1
  O  O14  1  0.00000000  0.86600000  0.00000000  1
  O  O15  1  0.50000000  0.36600000  0.50000000  1
  O  O16  1  0.16150000  0.16150000  0.04240000  1
  O  O17  1  0.66150000  0.66150000  0.54240000  1
  O  O18  1  0.83850000  0.16150000  0.04240000  1
  O  O19  1  0.33850000  0.66150000  0.54240000  1
  O  O20  1  0.83850000  0.83850000  0.04240000  1
  O  O21  1  0.33850000  0.33850000  0.54240000  1
  O  O22  1  0.16150000  0.83850000  0.04240000  1
  O  O23  1  0.66150000  0.33850000  0.54240000  1
  O  O24  1  0.83850000  0.83850000  0.95760000  1
  O  O25  1  0.33850000  0.33850000  0.45760000  1
  O  O26  1  0.16150000  0.83850000  0.95760000  1
  O  O27  1  0.66150000  0.33850000  0.45760000  1
  O  O28  1  0.16150000  0.16150000  0.95760000  1
  O  O29  1  0.66150000  0.66150000  0.45760000  1
  O  O30  1  0.83850000  0.16150000  0.95760000  1
  O  O31  1  0.33850000  0.66150000  0.45760000  1
  O  O32  1  0.33620000  0.09440000  0.34820000  1
  O  O33  1  0.83620000  0.59440000  0.84820000  1
  O  O34  1  0.90560000  0.33620000  0.34820000  1
  O  O35  1  0.40560000  0.83620000  0.84820000  1
  O  O36  1  0.66380000  0.90560000  0.34820000  1
  O  O37  1  0.16380000  0.40560000  0.84820000  1
  O  O38  1  0.09440000  0.66380000  0.34820000  1
  O  O39  1  0.59440000  0.16380000  0.84820000  1
  O  O40  1  0.66380000  0.09440000  0.34820000  1
  O  O41  1  0.16380000  0.59440000  0.84820000  1
  O  O42  1  0.09440000  0.33620000  0.34820000  1
  O  O43  1  0.59440000  0.83620000  0.84820000  1
  O  O44  1  0.33620000  0.90560000  0.34820000  1
  O  O45  1  0.83620000  0.40560000  0.84820000  1
  O  O46  1  0.90560000  0.66380000  0.34820000  1
  O  O47  1  0.40560000  0.16380000  0.84820000  1
  O  O48  1  0.66380000  0.90560000  0.65180000  1
  O  O49  1  0.16380000  0.40560000  0.15180000  1
  O  O50  1  0.09440000  0.66380000  0.65180000  1
  O  O51  1  0.59440000  0.16380000  0.15180000  1
  O  O52  1  0.33620000  0.09440000  0.65180000  1
  O  O53  1  0.83620000  0.59440000  0.15180000  1
  O  O54  1  0.90560000  0.33620000  0.65180000  1
  O  O55  1  0.40560000  0.83620000  0.15180000  1
  O  O56  1  0.33620000  0.90560000  0.65180000  1
  O  O57  1  0.83620000  0.40560000  0.15180000  1
  O  O58  1  0.90560000  0.66380000  0.65180000  1
  O  O59  1  0.40560000  0.16380000  0.15180000  1
  O  O60  1  0.66380000  0.09440000  0.65180000  1
  O  O61  1  0.16380000  0.59440000  0.15180000  1
  O  O62  1  0.09440000  0.33620000  0.65180000  1
  O  O63  1  0.59440000  0.83620000  0.15180000  1
  O  O64  1  0.40570000  0.00000000  0.28040000  1
  O  O65  1  0.90570000  0.50000000  0.78040000  1
  O  O66  1  0.00000000  0.40570000  0.28040000  1
  O  O67  1  0.50000000  0.90570000  0.78040000  1
  O  O68  1  0.59430000  0.00000000  0.28040000  1
  O  O69  1  0.09430000  0.50000000  0.78040000  1
  O  O70  1  0.00000000  0.59430000  0.28040000  1
  O  O71  1  0.50000000  0.09430000  0.78040000  1
  O  O72  1  0.59430000  0.00000000  0.71960000  1
  O  O73  1  0.09430000  0.50000000  0.21960000  1
  O  O74  1  0.00000000  0.59430000  0.71960000  1
  O  O75  1  0.50000000  0.09430000  0.21960000  1
  O  O76  1  0.40570000  0.00000000  0.71960000  1
  O  O77  1  0.90570000  0.50000000  0.21960000  1
  O  O78  1  0.00000000  0.40570000  0.71960000  1
  O  O79  1  0.50000000  0.90570000  0.21960000  1
  O  O80  1  0.22490000  0.00000000  0.40080000  1
  O  O81  1  0.72490000  0.50000000  0.90080000  1
  O  O82  1  0.00000000  0.22490000  0.40080000  1
  O  O83  1  0.50000000  0.72490000  0.90080000  1
  O  O84  1  0.77510000  0.00000000  0.40080000  1
  O  O85  1  0.27510000  0.50000000  0.90080000  1
  O  O86  1  0.00000000  0.77510000  0.40080000  1
  O  O87  1  0.50000000  0.27510000  0.90080000  1
  O  O88  1  0.77510000  0.00000000  0.59920000  1
  O  O89  1  0.27510000  0.50000000  0.09920000  1
  O  O90  1  0.00000000  0.77510000  0.59920000  1
  O  O91  1  0.50000000  0.27510000  0.09920000  1
  O  O92  1  0.22490000  0.00000000  0.59920000  1
  O  O93  1  0.72490000  0.50000000  0.09920000  1
  O  O94  1  0.00000000  0.22490000  0.59920000  1
  O  O95  1  0.50000000  0.72490000  0.09920000  1
  O  O96  1  0.33420000  0.20080000  0.07400000  1
  O  O97  1  0.83420000  0.70080000  0.57400000  1
  O  O98  1  0.79920000  0.33420000  0.07400000  1
  O  O99  1  0.29920000  0.83420000  0.57400000  1
  O  O100  1  0.66580000  0.79920000  0.07400000  1
  O  O101  1  0.16580000  0.29920000  0.57400000  1
  O  O102  1  0.20080000  0.66580000  0.07400000  1
  O  O103  1  0.70080000  0.16580000  0.57400000  1
  O  O104  1  0.66580000  0.20080000  0.07400000  1
  O  O105  1  0.16580000  0.70080000  0.57400000  1
  O  O106  1  0.20080000  0.33420000  0.07400000  1
  O  O107  1  0.70080000  0.83420000  0.57400000  1
  O  O108  1  0.33420000  0.79920000  0.07400000  1
  O  O109  1  0.83420000  0.29920000  0.57400000  1
  O  O110  1  0.79920000  0.66580000  0.07400000  1
  O  O111  1  0.29920000  0.16580000  0.57400000  1
  O  O112  1  0.66580000  0.79920000  0.92600000  1
  O  O113  1  0.16580000  0.29920000  0.42600000  1
  O  O114  1  0.20080000  0.66580000  0.92600000  1
  O  O115  1  0.70080000  0.16580000  0.42600000  1
  O  O116  1  0.33420000  0.20080000  0.92600000  1
  O  O117  1  0.83420000  0.70080000  0.42600000  1
  O  O118  1  0.79920000  0.33420000  0.92600000  1
  O  O119  1  0.29920000  0.83420000  0.42600000  1
  O  O120  1  0.33420000  0.79920000  0.92600000  1
  O  O121  1  0.83420000  0.29920000  0.42600000  1
  O  O122  1  0.79920000  0.66580000  0.92600000  1
  O  O123  1  0.29920000  0.16580000  0.42600000  1
  O  O124  1  0.66580000  0.20080000  0.92600000  1
  O  O125  1  0.16580000  0.70080000  0.42600000  1
  O  O126  1  0.20080000  0.33420000  0.92600000  1
  O  O127  1  0.70080000  0.83420000  0.42600000  1
  O  O128  1  0.16420000  0.16420000  0.36750000  1
  O  O129  1  0.66420000  0.66420000  0.86750000  1
  O  O130  1  0.83580000  0.16420000  0.36750000  1
  O  O131  1  0.33580000  0.66420000  0.86750000  1
  O  O132  1  0.83580000  0.83580000  0.36750000  1
  O  O133  1  0.33580000  0.33580000  0.86750000  1
  O  O134  1  0.16420000  0.83580000  0.36750000  1
  O  O135  1  0.66420000  0.33580000  0.86750000  1
  O  O136  1  0.83580000  0.83580000  0.63250000  1
  O  O137  1  0.33580000  0.33580000  0.13250000  1
  O  O138  1  0.16420000  0.83580000  0.63250000  1
  O  O139  1  0.66420000  0.33580000  0.13250000  1
  O  O140  1  0.16420000  0.16420000  0.63250000  1
  O  O141  1  0.66420000  0.66420000  0.13250000  1
  O  O142  1  0.83580000  0.16420000  0.63250000  1
  O  O143  1  0.33580000  0.66420000  0.13250000  1
  O  O144  1  0.27540000  0.27540000  0.00000000  1
  O  O145  1  0.77540000  0.77540000  0.50000000  1
  O  O146  1  0.72460000  0.27540000  0.00000000  1
  O  O147  1  0.22460000  0.77540000  0.50000000  1
  O  O148  1  0.72460000  0.72460000  0.00000000  1
  O  O149  1  0.22460000  0.22460000  0.50000000  1
  O  O150  1  0.27540000  0.72460000  0.00000000  1
  O  O151  1  0.77540000  0.22460000  0.50000000  1
