# generated using pymatgen
data_O2
_symmetry_space_group_name_H-M   'P 1'
_cell_length_a   9.68600000
_cell_length_b   12.22600000
_cell_length_c   22.83600000
_cell_angle_alpha   90.00000000
_cell_angle_beta   90.00000000
_cell_angle_gamma   90.00000000
_symmetry_Int_Tables_number   1
_chemical_formula_structural   O2
_chemical_formula_sum   O96
_cell_volume   2704.26277810
_cell_formula_units_Z   48
loop_
 _symmetry_equiv_pos_site_id
 _symmetry_equiv_pos_as_xyz
  1  'x, y, z'
loop_
 _atom_site_type_symbol
 _atom_site_label
 _atom_site_symmetry_multiplicity
 _atom_site_fract_x
 _atom_site_fract_y
 _atom_site_fract_z
 _atom_site_occupancy
  O  O0  1  0.29570000  0.75000000  0.85020000  1
  O  O1  1  0.20430000  0.25000000  0.35020000  1
  O  O2  1  0.70430000  0.25000000  0.14980000  1
  O  O3  1  0.79570000  0.75000000  0.64980000  1
  O  O4  1  0.24840000  0.91830000  0.91900000  1
  O  O5  1  0.25160000  0.41830000  0.41900000  1
  O  O6  1  0.24840000  0.58170000  0.91900000  1
  O  O7  1  0.25160000  0.08170000  0.41900000  1
  O  O8  1  0.75160000  0.08170000  0.08100000  1
  O  O9  1  0.74840000  0.58170000  0.58100000  1
  O  O10  1  0.75160000  0.41830000  0.08100000  1
  O  O11  1  0.74840000  0.91830000  0.58100000  1
  O  O12  1  0.49700000  0.88560000  0.87640000  1
  O  O13  1  0.00300000  0.38560000  0.37640000  1
  O  O14  1  0.49700000  0.61440000  0.87640000  1
  O  O15  1  0.00300000  0.11440000  0.37640000  1
  O  O16  1  0.50300000  0.11440000  0.12360000  1
  O  O17  1  0.99700000  0.61440000  0.62360000  1
  O  O18  1  0.50300000  0.38560000  0.12360000  1
  O  O19  1  0.99700000  0.88560000  0.62360000  1
  O  O20  1  0.29660000  0.94920000  0.80680000  1
  O  O21  1  0.20340000  0.44920000  0.30680000  1
  O  O22  1  0.29660000  0.55080000  0.80680000  1
  O  O23  1  0.20340000  0.05080000  0.30680000  1
  O  O24  1  0.70340000  0.05080000  0.19320000  1
  O  O25  1  0.79660000  0.55080000  0.69320000  1
  O  O26  1  0.70340000  0.44920000  0.19320000  1
  O  O27  1  0.79660000  0.94920000  0.69320000  1
  O  O28  1  0.68310000  0.75000000  0.51490000  1
  O  O29  1  0.81690000  0.25000000  0.01490000  1
  O  O30  1  0.31690000  0.25000000  0.48510000  1
  O  O31  1  0.18310000  0.75000000  0.98510000  1
  O  O32  1  0.68480000  0.94800000  0.47020000  1
  O  O33  1  0.81520000  0.44800000  0.97020000  1
  O  O34  1  0.68480000  0.55200000  0.47020000  1
  O  O35  1  0.81520000  0.05200000  0.97020000  1
  O  O36  1  0.31520000  0.05200000  0.52980000  1
  O  O37  1  0.18480000  0.55200000  0.02980000  1
  O  O38  1  0.31520000  0.44800000  0.52980000  1
  O  O39  1  0.18480000  0.94800000  0.02980000  1
  O  O40  1  0.49250000  0.89210000  0.54570000  1
  O  O41  1  0.00750000  0.39210000  0.04570000  1
  O  O42  1  0.49250000  0.60790000  0.54570000  1
  O  O43  1  0.00750000  0.10790000  0.04570000  1
  O  O44  1  0.50750000  0.10790000  0.45430000  1
  O  O45  1  0.99250000  0.60790000  0.95430000  1
  O  O46  1  0.50750000  0.39210000  0.45430000  1
  O  O47  1  0.99250000  0.89210000  0.95430000  1
  O  O48  1  0.96250000  0.45630000  0.87350000  1
  O  O49  1  0.53750000  0.95630000  0.37350000  1
  O  O50  1  0.96250000  0.04370000  0.87350000  1
  O  O51  1  0.53750000  0.54370000  0.37350000  1
  O  O52  1  0.03750000  0.54370000  0.12650000  1
  O  O53  1  0.46250000  0.04370000  0.62650000  1
  O  O54  1  0.03750000  0.95630000  0.12650000  1
  O  O55  1  0.46250000  0.45630000  0.62650000  1
  O  O56  1  0.76530000  0.60030000  0.89180000  1
  O  O57  1  0.73470000  0.10030000  0.39180000  1
  O  O58  1  0.76530000  0.89970000  0.89180000  1
  O  O59  1  0.73470000  0.39970000  0.39180000  1
  O  O60  1  0.23470000  0.39970000  0.10820000  1
  O  O61  1  0.26530000  0.89970000  0.60820000  1
  O  O62  1  0.23470000  0.10030000  0.10820000  1
  O  O63  1  0.26530000  0.60030000  0.60820000  1
  O  O64  1  0.16280000  0.75000000  0.67830000  1
  O  O65  1  0.33720000  0.25000000  0.17830000  1
  O  O66  1  0.83720000  0.25000000  0.32170000  1
  O  O67  1  0.66280000  0.75000000  0.82170000  1
  O  O68  1  0.15490000  0.54250000  0.70880000  1
  O  O69  1  0.34510000  0.04250000  0.20880000  1
  O  O70  1  0.15490000  0.95750000  0.70880000  1
  O  O71  1  0.34510000  0.45750000  0.20880000  1
  O  O72  1  0.84510000  0.45750000  0.29120000  1
  O  O73  1  0.65490000  0.95750000  0.79120000  1
  O  O74  1  0.84510000  0.04250000  0.29120000  1
  O  O75  1  0.65490000  0.54250000  0.79120000  1
  O  O76  1  0.95840000  0.25000000  0.84080000  1
  O  O77  1  0.54160000  0.75000000  0.34080000  1
  O  O78  1  0.04160000  0.75000000  0.15920000  1
  O  O79  1  0.45840000  0.25000000  0.65920000  1
  O  O80  1  0.35450000  0.40110000  0.72800000  1
  O  O81  1  0.14550000  0.90110000  0.22800000  1
  O  O82  1  0.35450000  0.09890000  0.72800000  1
  O  O83  1  0.14550000  0.59890000  0.22800000  1
  O  O84  1  0.64550000  0.59890000  0.27200000  1
  O  O85  1  0.85450000  0.09890000  0.77200000  1
  O  O86  1  0.64550000  0.90110000  0.27200000  1
  O  O87  1  0.85450000  0.40110000  0.77200000  1
  O  O88  1  0.12310000  0.38910000  0.78810000  1
  O  O89  1  0.37690000  0.88910000  0.28810000  1
  O  O90  1  0.12310000  0.11090000  0.78810000  1
  O  O91  1  0.37690000  0.61090000  0.28810000  1
  O  O92  1  0.87690000  0.61090000  0.21190000  1
  O  O93  1  0.62310000  0.11090000  0.71190000  1
  O  O94  1  0.87690000  0.88910000  0.21190000  1
  O  O95  1  0.62310000  0.38910000  0.71190000  1
