# generated using pymatgen
data_Si
_symmetry_space_group_name_H-M   'P 1'
_cell_length_a   9.68600000
_cell_length_b   12.22600000
_cell_length_c   22.83600000
_cell_angle_alpha   90.00000000
_cell_angle_beta   90.00000000
_cell_angle_gamma   90.00000000
_symmetry_Int_Tables_number   1
_chemical_formula_structural   Si
_chemical_formula_sum   Si48
_cell_volume   2704.26277810
_cell_formula_units_Z   48
loop_
 _symmetry_equiv_pos_site_id
 _symmetry_equiv_pos_as_xyz
  1  'x, y, z'
loop_
 _atom_site_type_symbol
 _atom_site_label
 _atom_site_symmetry_multiplicity
 _atom_site_fract_x
 _atom_site_fract_y
 _atom_site_fract_z
 _atom_site_occupancy
  Si  Si0  1  0.33420000  0.87580000  0.86300000  1
  Si  Si1  1  0.16580000  0.37580000  0.36300000  1
  Si  Si2  1  0.33420000  0.62420000  0.86300000  1
  Si  Si3  1  0.16580000  0.12420000  0.36300000  1
  Si  Si4  1  0.66580000  0.12420000  0.13700000  1
  Si  Si5  1  0.83420000  0.62420000  0.63700000  1
  Si  Si6  1  0.66580000  0.37580000  0.13700000  1
  Si  Si7  1  0.83420000  0.87580000  0.63700000  1
  Si  Si8  1  0.65220000  0.87700000  0.52790000  1
  Si  Si9  1  0.84780000  0.37700000  0.02790000  1
  Si  Si10  1  0.65220000  0.62300000  0.52790000  1
  Si  Si11  1  0.84780000  0.12300000  0.02790000  1
  Si  Si12  1  0.34780000  0.12300000  0.47210000  1
  Si  Si13  1  0.15220000  0.62300000  0.97210000  1
  Si  Si14  1  0.34780000  0.37700000  0.47210000  1
  Si  Si15  1  0.15220000  0.87700000  0.97210000  1
  Si  Si16  1  0.88390000  0.52790000  0.92230000  1
  Si  Si17  1  0.61610000  0.02790000  0.42230000  1
  Si  Si18  1  0.88390000  0.97210000  0.92230000  1
  Si  Si19  1  0.61610000  0.47210000  0.42230000  1
  Si  Si20  1  0.11610000  0.47210000  0.07770000  1
  Si  Si21  1  0.38390000  0.97210000  0.57770000  1
  Si  Si22  1  0.11610000  0.02790000  0.07770000  1
  Si  Si23  1  0.38390000  0.52790000  0.57770000  1
  Si  Si24  1  0.14530000  0.87350000  0.65480000  1
  Si  Si25  1  0.35470000  0.37350000  0.15480000  1
  Si  Si26  1  0.14530000  0.62650000  0.65480000  1
  Si  Si27  1  0.35470000  0.12650000  0.15480000  1
  Si  Si28  1  0.85470000  0.12650000  0.34520000  1
  Si  Si29  1  0.64530000  0.62650000  0.84520000  1
  Si  Si30  1  0.85470000  0.37350000  0.34520000  1
  Si  Si31  1  0.64530000  0.87350000  0.84520000  1
  Si  Si32  1  0.97440000  0.12560000  0.81860000  1
  Si  Si33  1  0.52560000  0.62560000  0.31860000  1
  Si  Si34  1  0.97440000  0.37440000  0.81860000  1
  Si  Si35  1  0.52560000  0.87440000  0.31860000  1
  Si  Si36  1  0.02560000  0.87440000  0.18140000  1
  Si  Si37  1  0.47440000  0.37440000  0.68140000  1
  Si  Si38  1  0.02560000  0.62560000  0.18140000  1
  Si  Si39  1  0.47440000  0.12560000  0.68140000  1
  Si  Si40  1  0.23250000  0.47080000  0.75800000  1
  Si  Si41  1  0.26750000  0.97080000  0.25800000  1
  Si  Si42  1  0.23250000  0.02920000  0.75800000  1
  Si  Si43  1  0.26750000  0.52920000  0.25800000  1
  Si  Si44  1  0.76750000  0.52920000  0.24200000  1
  Si  Si45  1  0.73250000  0.02920000  0.74200000  1
  Si  Si46  1  0.76750000  0.97080000  0.24200000  1
  Si  Si47  1  0.73250000  0.47080000  0.74200000  1
