# generated using pymatgen
data_SiO4
_symmetry_space_group_name_H-M   'P 1'
_cell_length_a   9.68600000
_cell_length_b   12.22600000
_cell_length_c   22.83600000
_cell_angle_alpha   90.00000000
_cell_angle_beta   90.00000000
_cell_angle_gamma   90.00000000
_symmetry_Int_Tables_number   1
_chemical_formula_structural   SiO4
_chemical_formula_sum   'Si1 O4'
_cell_volume   2704.26277810
_cell_formula_units_Z   1
loop_
 _symmetry_equiv_pos_site_id
 _symmetry_equiv_pos_as_xyz
  1  'x, y, z'
loop_
 _atom_site_type_symbol
 _atom_site_label
 _atom_site_symmetry_multiplicity
 _atom_site_fract_x
 _atom_site_fract_y
 _atom_site_fract_z
 _atom_site_occupancy
  Si  Si0  1  0.52560000  0.87440000  0.31860000  1
  O  O1  1  0.53750000  0.95630000  0.37350000  1
  O  O2  1  0.54160000  0.75000000  0.34080000  1
  O  O3  1  0.64550000  0.90110000  0.27200000  1
  O  O4  1  0.37690000  0.88910000  0.28810000  1
