# generated using pymatgen
data_O2
_symmetry_space_group_name_H-M   'P 1'
_cell_length_a   9.30650000
_cell_length_b   9.30650000
_cell_length_c   15.09150000
_cell_angle_alpha   90.00000000
_cell_angle_beta   90.00000000
_cell_angle_gamma   120.00000000
_symmetry_Int_Tables_number   1
_chemical_formula_structural   O2
_chemical_formula_sum   O48
_cell_volume   1131.97230929
_cell_formula_units_Z   24
loop_
 _symmetry_equiv_pos_site_id
 _symmetry_equiv_pos_as_xyz
  1  'x, y, z'
loop_
 _atom_site_type_symbol
 _atom_site_label
 _atom_site_symmetry_multiplicity
 _atom_site_fract_x
 _atom_site_fract_y
 _atom_site_fract_z
 _atom_site_occupancy
  O  O0  1  0.17840000  0.45810000  0.33120000  1
  O  O1  1  0.54190000  0.72030000  0.66453333  1
  O  O2  1  0.27970000  0.82160000  0.99786667  1
  O  O3  1  0.45810000  0.17840000  0.00213333  1
  O  O4  1  0.72030000  0.54190000  0.66880000  1
  O  O5  1  0.82160000  0.27970000  0.33546667  1
  O  O6  1  0.82160000  0.54190000  0.83120000  1
  O  O7  1  0.45810000  0.27970000  0.16453333  1
  O  O8  1  0.72030000  0.17840000  0.49786667  1
  O  O9  1  0.54190000  0.82160000  0.50213333  1
  O  O10  1  0.27970000  0.45810000  0.16880000  1
  O  O11  1  0.17840000  0.72030000  0.83546667  1
  O  O12  1  0.18730000  0.54650000  0.50120000  1
  O  O13  1  0.45350000  0.64080000  0.83453333  1
  O  O14  1  0.35920000  0.81270000  0.16786667  1
  O  O15  1  0.54650000  0.18730000  0.83213333  1
  O  O16  1  0.64080000  0.45350000  0.49880000  1
  O  O17  1  0.81270000  0.35920000  0.16546667  1
  O  O18  1  0.81270000  0.45350000  0.00120000  1
  O  O19  1  0.54650000  0.35920000  0.33453333  1
  O  O20  1  0.64080000  0.18730000  0.66786667  1
  O  O21  1  0.45350000  0.81270000  0.33213333  1
  O  O22  1  0.35920000  0.54650000  0.99880000  1
  O  O23  1  0.18730000  0.64080000  0.66546667  1
  O  O24  1  0.01630000  0.24040000  0.45090000  1
  O  O25  1  0.75960000  0.77590000  0.78423333  1
  O  O26  1  0.22410000  0.98370000  0.11756667  1
  O  O27  1  0.24040000  0.01630000  0.88243333  1
  O  O28  1  0.77590000  0.75960000  0.54910000  1
  O  O29  1  0.98370000  0.22410000  0.21576667  1
  O  O30  1  0.98370000  0.75960000  0.95090000  1
  O  O31  1  0.24040000  0.22410000  0.28423333  1
  O  O32  1  0.77590000  0.01630000  0.61756667  1
  O  O33  1  0.75960000  0.98370000  0.38243333  1
  O  O34  1  0.22410000  0.24040000  0.04910000  1
  O  O35  1  0.01630000  0.77590000  0.71576667  1
  O  O36  1  0.34560000  0.39040000  0.44710000  1
  O  O37  1  0.60960000  0.95520000  0.78043333  1
  O  O38  1  0.04480000  0.65440000  0.11376667  1
  O  O39  1  0.39040000  0.34560000  0.88623333  1
  O  O40  1  0.95520000  0.60960000  0.55290000  1
  O  O41  1  0.65440000  0.04480000  0.21956667  1
  O  O42  1  0.65440000  0.60960000  0.94710000  1
  O  O43  1  0.39040000  0.04480000  0.28043333  1
  O  O44  1  0.95520000  0.34560000  0.61376667  1
  O  O45  1  0.60960000  0.65440000  0.38623333  1
  O  O46  1  0.04480000  0.39040000  0.05290000  1
  O  O47  1  0.34560000  0.95520000  0.71956667  1
