# generated using pymatgen
data_Si
_symmetry_space_group_name_H-M   'P 1'
_cell_length_a   9.30650000
_cell_length_b   9.30650000
_cell_length_c   15.09150000
_cell_angle_alpha   90.00000000
_cell_angle_beta   90.00000000
_cell_angle_gamma   120.00000000
_symmetry_Int_Tables_number   1
_chemical_formula_structural   Si
_chemical_formula_sum   Si24
_cell_volume   1131.97230929
_cell_formula_units_Z   24
loop_
 _symmetry_equiv_pos_site_id
 _symmetry_equiv_pos_as_xyz
  1  'x, y, z'
loop_
 _atom_site_type_symbol
 _atom_site_label
 _atom_site_symmetry_multiplicity
 _atom_site_fract_x
 _atom_site_fract_y
 _atom_site_fract_z
 _atom_site_occupancy
  Si  Si0  1  0.18610000  0.41240000  0.43350000  1
  Si  Si1  1  0.58760000  0.77370000  0.76683333  1
  Si  Si2  1  0.22630000  0.81390000  0.10016667  1
  Si  Si3  1  0.41240000  0.18610000  0.89983333  1
  Si  Si4  1  0.77370000  0.58760000  0.56650000  1
  Si  Si5  1  0.81390000  0.22630000  0.23316667  1
  Si  Si6  1  0.81390000  0.58760000  0.93350000  1
  Si  Si7  1  0.41240000  0.22630000  0.26683333  1
  Si  Si8  1  0.77370000  0.18610000  0.60016667  1
  Si  Si9  1  0.58760000  0.81390000  0.39983333  1
  Si  Si10  1  0.22630000  0.41240000  0.06650000  1
  Si  Si11  1  0.18610000  0.77370000  0.73316667  1
  Si  Si12  1  0.53570000  0.07140000  0.75000000  1
  Si  Si13  1  0.92860000  0.46430000  0.08333333  1
  Si  Si14  1  0.53570000  0.46430000  0.41666667  1
  Si  Si15  1  0.07140000  0.53570000  0.58333333  1
  Si  Si16  1  0.46430000  0.92860000  0.25000000  1
  Si  Si17  1  0.46430000  0.53570000  0.91666667  1
  Si  Si18  1  0.17100000  0.34200000  0.25000000  1
  Si  Si19  1  0.65800000  0.82900000  0.58333333  1
  Si  Si20  1  0.17100000  0.82900000  0.91666667  1
  Si  Si21  1  0.34200000  0.17100000  0.08333333  1
  Si  Si22  1  0.82900000  0.65800000  0.75000000  1
  Si  Si23  1  0.82900000  0.17100000  0.41666667  1
