# generated using pymatgen
data_SiO4
_symmetry_space_group_name_H-M   'P 1'
_cell_length_a   9.30650000
_cell_length_b   9.30650000
_cell_length_c   15.09150000
_cell_angle_alpha   90.00000000
_cell_angle_beta   90.00000000
_cell_angle_gamma   120.00000000
_symmetry_Int_Tables_number   1
_chemical_formula_structural   SiO4
_chemical_formula_sum   'Si1 O4'
_cell_volume   1131.97230929
_cell_formula_units_Z   1
loop_
 _symmetry_equiv_pos_site_id
 _symmetry_equiv_pos_as_xyz
  1  'x, y, z'
loop_
 _atom_site_type_symbol
 _atom_site_label
 _atom_site_symmetry_multiplicity
 _atom_site_fract_x
 _atom_site_fract_y
 _atom_site_fract_z
 _atom_site_occupancy
  Si  Si0  1  0.18610000  0.77370000  0.73316667  1
  O  O1  1  0.17840000  0.72030000  0.83546667  1
  O  O2  1  0.18730000  0.64080000  0.66546667  1
  O  O3  1  0.01630000  0.77590000  0.71576667  1
  O  O4  1  0.34560000  0.95520000  0.71956667  1
