# generated using pymatgen
data_SiO4
_symmetry_space_group_name_H-M   'P 1'
_cell_length_a   9.30650000
_cell_length_b   9.30650000
_cell_length_c   15.09150000
_cell_angle_alpha   90.00000000
_cell_angle_beta   90.00000000
_cell_angle_gamma   120.00000000
_symmetry_Int_Tables_number   1
_chemical_formula_structural   SiO4
_chemical_formula_sum   'Si1 O4'
_cell_volume   1131.97230929
_cell_formula_units_Z   1
loop_
 _symmetry_equiv_pos_site_id
 _symmetry_equiv_pos_as_xyz
  1  'x, y, z'
loop_
 _atom_site_type_symbol
 _atom_site_label
 _atom_site_symmetry_multiplicity
 _atom_site_fract_x
 _atom_site_fract_y
 _atom_site_fract_z
 _atom_site_occupancy
  Si  Si0  1  0.17100000  0.82900000  0.91666667  1
  O  O1  1  0.27970000  0.82160000  0.99786667  1
  O  O2  1  0.17840000  0.72030000  0.83546667  1
  O  O3  1  0.24040000  1.01630000  0.88243333  1
  O  O4  1  -0.01630000  0.75960000  0.95090000  1
