# generated using pymatgen
data_Si
_symmetry_space_group_name_H-M   'P 1'
_cell_length_a   25.55200000
_cell_length_b   5.25600000
_cell_length_c   12.11700000
_cell_angle_alpha   90.00000000
_cell_angle_beta   109.31200000
_cell_angle_gamma   90.00000000
_symmetry_Int_Tables_number   1
_chemical_formula_structural   Si
_chemical_formula_sum   Si28
_cell_volume   1535.76197447
_cell_formula_units_Z   28
loop_
 _symmetry_equiv_pos_site_id
 _symmetry_equiv_pos_as_xyz
  1  'x, y, z'
loop_
 _atom_site_type_symbol
 _atom_site_label
 _atom_site_symmetry_multiplicity
 _atom_site_fract_x
 _atom_site_fract_y
 _atom_site_fract_z
 _atom_site_occupancy
  Si  Si0  1  0.07100000  0.00000000  0.16600000  1
  Si  Si1  1  0.57100000  0.50000000  0.16600000  1
  Si  Si2  1  0.92900000  0.00000000  0.83400000  1
  Si  Si3  1  0.42900000  0.50000000  0.83400000  1
  Si  Si4  1  0.06210000  0.00000000  0.90830000  1
  Si  Si5  1  0.56210000  0.50000000  0.90830000  1
  Si  Si6  1  0.93790000  0.00000000  0.09170000  1
  Si  Si7  1  0.43790000  0.50000000  0.09170000  1
  Si  Si8  1  0.36710000  0.00000000  0.71190000  1
  Si  Si9  1  0.86710000  0.50000000  0.71190000  1
  Si  Si10  1  0.63290000  0.00000000  0.28810000  1
  Si  Si11  1  0.13290000  0.50000000  0.28810000  1
  Si  Si12  1  0.37890000  0.00000000  0.11990000  1
  Si  Si13  1  0.87890000  0.50000000  0.11990000  1
  Si  Si14  1  0.62110000  0.00000000  0.88010000  1
  Si  Si15  1  0.12110000  0.50000000  0.88010000  1
  Si  Si16  1  0.28850000  0.00000000  0.86250000  1
  Si  Si17  1  0.78850000  0.50000000  0.86250000  1
  Si  Si18  1  0.71150000  0.00000000  0.13750000  1
  Si  Si19  1  0.21150000  0.50000000  0.13750000  1
  Si  Si20  1  0.28130000  0.00000000  0.21340000  1
  Si  Si21  1  0.78130000  0.50000000  0.21340000  1
  Si  Si22  1  0.71870000  0.00000000  0.78660000  1
  Si  Si23  1  0.21870000  0.50000000  0.78660000  1
  Si  Si24  1  0.28180000  0.00000000  0.47910000  1
  Si  Si25  1  0.78180000  0.50000000  0.47910000  1
  Si  Si26  1  0.71820000  0.00000000  0.52090000  1
  Si  Si27  1  0.21820000  0.50000000  0.52090000  1
