# generated using pymatgen
data_O2
_symmetry_space_group_name_H-M   'P 1'
_cell_length_a   25.55200000
_cell_length_b   5.25600000
_cell_length_c   12.11700000
_cell_angle_alpha   90.00000000
_cell_angle_beta   109.31200000
_cell_angle_gamma   90.00000000
_symmetry_Int_Tables_number   1
_chemical_formula_structural   O2
_chemical_formula_sum   O56
_cell_volume   1535.76197447
_cell_formula_units_Z   28
loop_
 _symmetry_equiv_pos_site_id
 _symmetry_equiv_pos_as_xyz
  1  'x, y, z'
loop_
 _atom_site_type_symbol
 _atom_site_label
 _atom_site_symmetry_multiplicity
 _atom_site_fract_x
 _atom_site_fract_y
 _atom_site_fract_z
 _atom_site_occupancy
  O  O0  1  0.00450000  0.00000000  0.13130000  1
  O  O1  1  0.50450000  0.50000000  0.13130000  1
  O  O2  1  0.99550000  0.00000000  0.86870000  1
  O  O3  1  0.49550000  0.50000000  0.86870000  1
  O  O4  1  0.09580000  0.75010000  0.24210000  1
  O  O5  1  0.59580000  0.25010000  0.24210000  1
  O  O6  1  0.90420000  0.75010000  0.75790000  1
  O  O7  1  0.40420000  0.25010000  0.75790000  1
  O  O8  1  0.90420000  0.24990000  0.75790000  1
  O  O9  1  0.40420000  0.74990000  0.75790000  1
  O  O10  1  0.09580000  0.24990000  0.24210000  1
  O  O11  1  0.59580000  0.74990000  0.24210000  1
  O  O12  1  0.08760000  0.00000000  0.04900000  1
  O  O13  1  0.58760000  0.50000000  0.04900000  1
  O  O14  1  0.91240000  0.00000000  0.95100000  1
  O  O15  1  0.41240000  0.50000000  0.95100000  1
  O  O16  1  0.08260000  0.25000000  0.85760000  1
  O  O17  1  0.58260000  0.75000000  0.85760000  1
  O  O18  1  0.91740000  0.25000000  0.14240000  1
  O  O19  1  0.41740000  0.75000000  0.14240000  1
  O  O20  1  0.91740000  0.75000000  0.14240000  1
  O  O21  1  0.41740000  0.25000000  0.14240000  1
  O  O22  1  0.08260000  0.75000000  0.85760000  1
  O  O23  1  0.58260000  0.25000000  0.85760000  1
  O  O24  1  0.34400000  0.00000000  0.57100000  1
  O  O25  1  0.84400000  0.50000000  0.57100000  1
  O  O26  1  0.65600000  0.00000000  0.42900000  1
  O  O27  1  0.15600000  0.50000000  0.42900000  1
  O  O28  1  0.31530000  0.00000000  0.75950000  1
  O  O29  1  0.81530000  0.50000000  0.75950000  1
  O  O30  1  0.68470000  0.00000000  0.24050000  1
  O  O31  1  0.18470000  0.50000000  0.24050000  1
  O  O32  1  0.34340000  0.00000000  0.20790000  1
  O  O33  1  0.84340000  0.50000000  0.20790000  1
  O  O34  1  0.65660000  0.00000000  0.79210000  1
  O  O35  1  0.15660000  0.50000000  0.79210000  1
  O  O36  1  0.33740000  0.00000000  0.98700000  1
  O  O37  1  0.83740000  0.50000000  0.98700000  1
  O  O38  1  0.66260000  0.00000000  0.01300000  1
  O  O39  1  0.16260000  0.50000000  0.01300000  1
  O  O40  1  0.25080000  0.74990000  0.85150000  1
  O  O41  1  0.75080000  0.24990000  0.85150000  1
  O  O42  1  0.74920000  0.74990000  0.14850000  1
  O  O43  1  0.24920000  0.24990000  0.14850000  1
  O  O44  1  0.74920000  0.25010000  0.14850000  1
  O  O45  1  0.24920000  0.75010000  0.14850000  1
  O  O46  1  0.25080000  0.25010000  0.85150000  1
  O  O47  1  0.75080000  0.75010000  0.85150000  1
  O  O48  1  0.28380000  0.00000000  0.34780000  1
  O  O49  1  0.78380000  0.50000000  0.34780000  1
  O  O50  1  0.71620000  0.00000000  0.65220000  1
  O  O51  1  0.21620000  0.50000000  0.65220000  1
  O  O52  1  0.25000000  0.75000000  0.50000000  1
  O  O53  1  0.75000000  0.25000000  0.50000000  1
  O  O54  1  0.75000000  0.75000000  0.50000000  1
  O  O55  1  0.25000000  0.25000000  0.50000000  1
