# generated using pymatgen
data_Si
_symmetry_space_group_name_H-M   'P 1'
_cell_length_a   14.40474000
_cell_length_b   14.40474000
_cell_length_c   50.35448000
_cell_angle_alpha   90.00000000
_cell_angle_beta   90.00000000
_cell_angle_gamma   120.00000000
_symmetry_Int_Tables_number   1
_chemical_formula_structural   Si
_chemical_formula_sum   Si142
_cell_volume   9048.56259059
_cell_formula_units_Z   142
loop_
 _symmetry_equiv_pos_site_id
 _symmetry_equiv_pos_as_xyz
  1  'x, y, z'
loop_
 _atom_site_type_symbol
 _atom_site_label
 _atom_site_symmetry_multiplicity
 _atom_site_fract_x
 _atom_site_fract_y
 _atom_site_fract_z
 _atom_site_occupancy
  Si  Si0  1  0.72591000  0.66666667  0.91945000  1
  Si  Si1  1  0.33333333  0.05924333  0.91945000  1
  Si  Si2  1  0.94075667  0.27409000  0.91945000  1
  Si  Si3  1  0.33333333  0.27409000  0.91945000  1
  Si  Si4  1  0.72591000  0.05924333  0.91945000  1
  Si  Si5  1  0.94075667  0.66666667  0.91945000  1
  Si  Si6  1  0.27409000  0.33333333  0.41945000  1
  Si  Si7  1  0.66666667  0.94075667  0.41945000  1
  Si  Si8  1  0.05924333  0.72591000  0.41945000  1
  Si  Si9  1  0.66666667  0.72591000  0.41945000  1
  Si  Si10  1  0.27409000  0.94075667  0.41945000  1
  Si  Si11  1  0.05924333  0.33333333  0.41945000  1
  Si  Si12  1  0.27343000  0.33289000  0.08017000  1
  Si  Si13  1  0.66711000  0.94054000  0.08017000  1
  Si  Si14  1  0.05946000  0.72657000  0.08017000  1
  Si  Si15  1  0.66711000  0.72657000  0.08017000  1
  Si  Si16  1  0.27343000  0.94054000  0.08017000  1
  Si  Si17  1  0.05946000  0.33289000  0.08017000  1
  Si  Si18  1  0.72657000  0.66711000  0.58017000  1
  Si  Si19  1  0.33289000  0.05946000  0.58017000  1
  Si  Si20  1  0.94054000  0.27343000  0.58017000  1
  Si  Si21  1  0.33289000  0.27343000  0.58017000  1
  Si  Si22  1  0.72657000  0.05946000  0.58017000  1
  Si  Si23  1  0.94054000  0.66711000  0.58017000  1
  Si  Si24  1  0.94064000  0.27405000  0.85562000  1
  Si  Si25  1  0.72595000  0.66659000  0.85562000  1
  Si  Si26  1  0.33341000  0.05936000  0.85562000  1
  Si  Si27  1  0.72595000  0.05936000  0.85562000  1
  Si  Si28  1  0.94064000  0.66659000  0.85562000  1
  Si  Si29  1  0.33341000  0.27405000  0.85562000  1
  Si  Si30  1  0.05936000  0.72595000  0.35562000  1
  Si  Si31  1  0.27405000  0.33341000  0.35562000  1
  Si  Si32  1  0.66659000  0.94064000  0.35562000  1
  Si  Si33  1  0.27405000  0.94064000  0.35562000  1
  Si  Si34  1  0.05936000  0.33341000  0.35562000  1
  Si  Si35  1  0.66659000  0.72595000  0.35562000  1
  Si  Si36  1  0.05958000  0.72645000  0.14403000  1
  Si  Si37  1  0.27355000  0.33313000  0.14403000  1
  Si  Si38  1  0.66687000  0.94042000  0.14403000  1
  Si  Si39  1  0.27355000  0.94042000  0.14403000  1
  Si  Si40  1  0.05958000  0.33313000  0.14403000  1
  Si  Si41  1  0.66687000  0.72645000  0.14403000  1
  Si  Si42  1  0.94042000  0.27355000  0.64403000  1
  Si  Si43  1  0.72645000  0.66687000  0.64403000  1
  Si  Si44  1  0.33313000  0.05958000  0.64403000  1
  Si  Si45  1  0.72645000  0.05958000  0.64403000  1
  Si  Si46  1  0.94042000  0.66687000  0.64403000  1
  Si  Si47  1  0.33313000  0.27355000  0.64403000  1
  Si  Si48  1  0.09852000  0.90148000  0.93118000  1
  Si  Si49  1  0.09852000  0.19704000  0.93118000  1
  Si  Si50  1  0.80296000  0.90148000  0.93118000  1
  Si  Si51  1  0.90148000  0.09852000  0.43118000  1
  Si  Si52  1  0.90148000  0.80296000  0.43118000  1
  Si  Si53  1  0.19704000  0.09852000  0.43118000  1
  Si  Si54  1  0.90178000  0.09822000  0.06834000  1
  Si  Si55  1  0.90178000  0.80356000  0.06834000  1
  Si  Si56  1  0.19644000  0.09822000  0.06834000  1
  Si  Si57  1  0.09822000  0.90178000  0.56834000  1
  Si  Si58  1  0.09822000  0.19644000  0.56834000  1
  Si  Si59  1  0.80356000  0.90178000  0.56834000  1
  Si  Si60  1  0.86764000  0.43382000  0.56810000  1
  Si  Si61  1  0.56618000  0.43382000  0.56810000  1
  Si  Si62  1  0.56618000  0.13236000  0.56810000  1
  Si  Si63  1  0.13236000  0.56618000  0.06810000  1
  Si  Si64  1  0.43382000  0.56618000  0.06810000  1
  Si  Si65  1  0.43382000  0.86764000  0.06810000  1
  Si  Si66  1  0.13630000  0.56815000  0.43124000  1
  Si  Si67  1  0.43185000  0.56815000  0.43124000  1
  Si  Si68  1  0.43185000  0.86370000  0.43124000  1
  Si  Si69  1  0.86370000  0.43185000  0.93124000  1
  Si  Si70  1  0.56815000  0.43185000  0.93124000  1
  Si  Si71  1  0.56815000  0.13630000  0.93124000  1
  Si  Si72  1  0.12345000  0.87655000  0.82746000  1
  Si  Si73  1  0.12345000  0.24690000  0.82746000  1
  Si  Si74  1  0.75310000  0.87655000  0.82746000  1
  Si  Si75  1  0.87655000  0.12345000  0.32746000  1
  Si  Si76  1  0.87655000  0.75310000  0.32746000  1
  Si  Si77  1  0.24690000  0.12345000  0.32746000  1
  Si  Si78  1  0.87663000  0.12337000  0.17220000  1
  Si  Si79  1  0.87663000  0.75326000  0.17220000  1
  Si  Si80  1  0.24674000  0.12337000  0.17220000  1
  Si  Si81  1  0.12337000  0.87663000  0.67220000  1
  Si  Si82  1  0.12337000  0.24674000  0.67220000  1
  Si  Si83  1  0.75326000  0.87663000  0.67220000  1
  Si  Si84  1  0.54316000  0.45684000  0.82739000  1
  Si  Si85  1  0.54316000  0.08632000  0.82739000  1
  Si  Si86  1  0.91368000  0.45684000  0.82739000  1
  Si  Si87  1  0.45684000  0.54316000  0.32739000  1
  Si  Si88  1  0.45684000  0.91368000  0.32739000  1
  Si  Si89  1  0.08632000  0.54316000  0.32739000  1
  Si  Si90  1  0.45701000  0.54299000  0.17185000  1
  Si  Si91  1  0.45701000  0.91402000  0.17185000  1
  Si  Si92  1  0.08598000  0.54299000  0.17185000  1
  Si  Si93  1  0.54299000  0.45701000  0.67185000  1
  Si  Si94  1  0.54299000  0.08598000  0.67185000  1
  Si  Si95  1  0.91402000  0.45701000  0.67185000  1
  Si  Si96  1  0.45991000  0.54009000  0.77998000  1
  Si  Si97  1  0.45991000  0.91982000  0.77998000  1
  Si  Si98  1  0.08018000  0.54009000  0.77998000  1
  Si  Si99  1  0.54009000  0.45991000  0.27998000  1
  Si  Si100  1  0.54009000  0.08018000  0.27998000  1
  Si  Si101  1  0.91982000  0.45991000  0.27998000  1
  Si  Si102  1  0.53992000  0.46008000  0.21934000  1
  Si  Si103  1  0.53992000  0.07984000  0.21934000  1
  Si  Si104  1  0.92016000  0.46008000  0.21934000  1
  Si  Si105  1  0.46008000  0.53992000  0.71934000  1
  Si  Si106  1  0.46008000  0.92016000  0.71934000  1
  Si  Si107  1  0.07984000  0.53992000  0.71934000  1
  Si  Si108  1  0.79316000  0.20684000  0.28008000  1
  Si  Si109  1  0.79316000  0.58632000  0.28008000  1
  Si  Si110  1  0.41368000  0.20684000  0.28008000  1
  Si  Si111  1  0.20684000  0.79316000  0.78008000  1
  Si  Si112  1  0.20684000  0.41368000  0.78008000  1
  Si  Si113  1  0.58632000  0.79316000  0.78008000  1
  Si  Si114  1  0.20696000  0.79304000  0.71949000  1
  Si  Si115  1  0.20696000  0.41392000  0.71949000  1
  Si  Si116  1  0.58608000  0.79304000  0.71949000  1
  Si  Si117  1  0.79304000  0.20696000  0.21949000  1
  Si  Si118  1  0.79304000  0.58608000  0.21949000  1
  Si  Si119  1  0.41392000  0.20696000  0.21949000  1
  Si  Si120  1  0.33333333  0.66666667  0.46779000  1
  Si  Si121  1  0.66666667  0.33333333  0.96779000  1
  Si  Si122  1  0.33333333  0.66666667  0.10391000  1
  Si  Si123  1  0.66666667  0.33333333  0.60391000  1
  Si  Si124  1  0.66666667  0.33333333  0.89475000  1
  Si  Si125  1  0.33333333  0.66666667  0.39475000  1
  Si  Si126  1  0.66666667  0.33333333  0.83089000  1
  Si  Si127  1  0.33333333  0.66666667  0.33089000  1
  Si  Si128  1  0.33333333  0.66666667  0.16777000  1
  Si  Si129  1  0.66666667  0.33333333  0.66777000  1
  Si  Si130  1  0.00000000  0.00000000  0.96775000  1
  Si  Si131  1  0.00000000  0.00000000  0.46775000  1
  Si  Si132  1  0.00000000  0.00000000  0.03162000  1
  Si  Si133  1  0.00000000  0.00000000  0.53162000  1
  Si  Si134  1  0.00000000  0.00000000  0.89470000  1
  Si  Si135  1  0.00000000  0.00000000  0.39470000  1
  Si  Si136  1  0.00000000  0.00000000  0.10498000  1
  Si  Si137  1  0.00000000  0.00000000  0.60498000  1
  Si  Si138  1  0.00000000  0.00000000  0.83084000  1
  Si  Si139  1  0.00000000  0.00000000  0.33084000  1
  Si  Si140  1  0.00000000  0.00000000  0.16884000  1
  Si  Si141  1  0.00000000  0.00000000  0.66884000  1
