# generated using pymatgen
data_O2
_symmetry_space_group_name_H-M   'P 1'
_cell_length_a   14.40474000
_cell_length_b   14.40474000
_cell_length_c   50.35448000
_cell_angle_alpha   90.00000000
_cell_angle_beta   90.00000000
_cell_angle_gamma   120.00000000
_symmetry_Int_Tables_number   1
_chemical_formula_structural   O2
_chemical_formula_sum   O288
_cell_volume   9048.56259059
_cell_formula_units_Z   144
loop_
 _symmetry_equiv_pos_site_id
 _symmetry_equiv_pos_as_xyz
  1  'x, y, z'
loop_
 _atom_site_type_symbol
 _atom_site_label
 _atom_site_symmetry_multiplicity
 _atom_site_fract_x
 _atom_site_fract_y
 _atom_site_fract_z
 _atom_site_occupancy
  O  O0  1  0.87818000  0.93909000  0.95717000  1
  O  O1  1  0.06091000  0.93909000  0.95717000  1
  O  O2  1  0.06091000  0.12182000  0.95717000  1
  O  O3  1  0.12182000  0.06091000  0.45717000  1
  O  O4  1  0.93909000  0.06091000  0.45717000  1
  O  O5  1  0.93909000  0.87818000  0.45717000  1
  O  O6  1  0.00000000  0.00000000  0.99969000  1
  O  O7  1  0.00000000  0.00000000  0.49969000  1
  O  O8  1  0.12170000  0.06085000  0.04227000  1
  O  O9  1  0.93915000  0.06085000  0.04227000  1
  O  O10  1  0.93915000  0.87830000  0.04227000  1
  O  O11  1  0.87830000  0.93915000  0.54227000  1
  O  O12  1  0.06085000  0.93915000  0.54227000  1
  O  O13  1  0.06085000  0.12170000  0.54227000  1
  O  O14  1  0.60574000  0.21148000  0.95723000  1
  O  O15  1  0.78852000  0.39426000  0.95723000  1
  O  O16  1  0.60574000  0.39426000  0.95723000  1
  O  O17  1  0.39426000  0.78852000  0.45723000  1
  O  O18  1  0.21148000  0.60574000  0.45723000  1
  O  O19  1  0.39426000  0.60574000  0.45723000  1
  O  O20  1  0.33333333  0.66666667  0.49976000  1
  O  O21  1  0.66666667  0.33333333  0.99976000  1
  O  O22  1  0.39908000  0.79816000  0.04116000  1
  O  O23  1  0.20184000  0.60092000  0.04116000  1
  O  O24  1  0.39908000  0.60092000  0.04116000  1
  O  O25  1  0.60092000  0.20184000  0.54116000  1
  O  O26  1  0.79816000  0.39908000  0.54116000  1
  O  O27  1  0.60092000  0.39908000  0.54116000  1
  O  O28  1  0.04365000  0.77283000  0.93078000  1
  O  O29  1  0.22717000  0.27082000  0.93078000  1
  O  O30  1  0.72918000  0.95635000  0.93078000  1
  O  O31  1  0.22717000  0.95635000  0.93078000  1
  O  O32  1  0.04365000  0.27082000  0.93078000  1
  O  O33  1  0.72918000  0.77283000  0.93078000  1
  O  O34  1  0.95635000  0.22717000  0.43078000  1
  O  O35  1  0.77283000  0.72918000  0.43078000  1
  O  O36  1  0.27082000  0.04365000  0.43078000  1
  O  O37  1  0.77283000  0.04365000  0.43078000  1
  O  O38  1  0.95635000  0.72918000  0.43078000  1
  O  O39  1  0.27082000  0.22717000  0.43078000  1
  O  O40  1  0.06096000  0.93904000  0.90517000  1
  O  O41  1  0.06096000  0.12192000  0.90517000  1
  O  O42  1  0.87808000  0.93904000  0.90517000  1
  O  O43  1  0.93904000  0.06096000  0.40517000  1
  O  O44  1  0.93904000  0.87808000  0.40517000  1
  O  O45  1  0.12192000  0.06096000  0.40517000  1
  O  O46  1  0.95672000  0.22683000  0.06872000  1
  O  O47  1  0.77317000  0.72989000  0.06872000  1
  O  O48  1  0.27011000  0.04328000  0.06872000  1
  O  O49  1  0.77317000  0.04328000  0.06872000  1
  O  O50  1  0.95672000  0.72989000  0.06872000  1
  O  O51  1  0.27011000  0.22683000  0.06872000  1
  O  O52  1  0.04328000  0.77317000  0.56872000  1
  O  O53  1  0.22683000  0.27011000  0.56872000  1
  O  O54  1  0.72989000  0.95672000  0.56872000  1
  O  O55  1  0.22683000  0.95672000  0.56872000  1
  O  O56  1  0.04328000  0.27011000  0.56872000  1
  O  O57  1  0.72989000  0.77317000  0.56872000  1
  O  O58  1  0.93910000  0.06090000  0.09443000  1
  O  O59  1  0.93910000  0.87820000  0.09443000  1
  O  O60  1  0.12180000  0.06090000  0.09443000  1
  O  O61  1  0.06090000  0.93910000  0.59443000  1
  O  O62  1  0.06090000  0.12180000  0.59443000  1
  O  O63  1  0.87820000  0.93910000  0.59443000  1
  O  O64  1  0.94120000  0.56238000  0.56920000  1
  O  O65  1  0.43762000  0.37882000  0.56920000  1
  O  O66  1  0.62118000  0.05880000  0.56920000  1
  O  O67  1  0.43762000  0.05880000  0.56920000  1
  O  O68  1  0.94120000  0.37882000  0.56920000  1
  O  O69  1  0.62118000  0.56238000  0.56920000  1
  O  O70  1  0.05880000  0.43762000  0.06920000  1
  O  O71  1  0.56238000  0.62118000  0.06920000  1
  O  O72  1  0.37882000  0.94120000  0.06920000  1
  O  O73  1  0.56238000  0.94120000  0.06920000  1
  O  O74  1  0.05880000  0.62118000  0.06920000  1
  O  O75  1  0.37882000  0.43762000  0.06920000  1
  O  O76  1  0.78842000  0.39421000  0.59334000  1
  O  O77  1  0.60579000  0.39421000  0.59334000  1
  O  O78  1  0.60579000  0.21158000  0.59334000  1
  O  O79  1  0.21158000  0.60579000  0.09334000  1
  O  O80  1  0.39421000  0.60579000  0.09334000  1
  O  O81  1  0.39421000  0.78842000  0.09334000  1
  O  O82  1  0.06251000  0.43949000  0.43085000  1
  O  O83  1  0.56051000  0.62302000  0.43085000  1
  O  O84  1  0.37698000  0.93749000  0.43085000  1
  O  O85  1  0.56051000  0.93749000  0.43085000  1
  O  O86  1  0.06251000  0.62302000  0.43085000  1
  O  O87  1  0.37698000  0.43949000  0.43085000  1
  O  O88  1  0.93749000  0.56051000  0.93085000  1
  O  O89  1  0.43949000  0.37698000  0.93085000  1
  O  O90  1  0.62302000  0.06251000  0.93085000  1
  O  O91  1  0.43949000  0.06251000  0.93085000  1
  O  O92  1  0.93749000  0.37698000  0.93085000  1
  O  O93  1  0.62302000  0.56051000  0.93085000  1
  O  O94  1  0.21142000  0.60571000  0.40523000  1
  O  O95  1  0.39429000  0.60571000  0.40523000  1
  O  O96  1  0.39429000  0.78858000  0.40523000  1
  O  O97  1  0.78858000  0.39429000  0.90523000  1
  O  O98  1  0.60571000  0.39429000  0.90523000  1
  O  O99  1  0.60571000  0.21142000  0.90523000  1
  O  O100  1  0.83333000  0.66666667  0.92834000  1
  O  O101  1  0.33333333  0.16666333  0.92834000  1
  O  O102  1  0.83333667  0.16667000  0.92834000  1
  O  O103  1  0.16667000  0.33333333  0.42834000  1
  O  O104  1  0.66666667  0.83333667  0.42834000  1
  O  O105  1  0.16666333  0.83333000  0.42834000  1
  O  O106  1  0.71983000  0.66641000  0.88754000  1
  O  O107  1  0.33359000  0.05342000  0.88754000  1
  O  O108  1  0.94658000  0.28017000  0.88754000  1
  O  O109  1  0.33359000  0.28017000  0.88754000  1
  O  O110  1  0.71983000  0.05342000  0.88754000  1
  O  O111  1  0.94658000  0.66641000  0.88754000  1
  O  O112  1  0.28017000  0.33359000  0.38754000  1
  O  O113  1  0.66641000  0.94658000  0.38754000  1
  O  O114  1  0.05342000  0.71983000  0.38754000  1
  O  O115  1  0.66641000  0.71983000  0.38754000  1
  O  O116  1  0.28017000  0.94658000  0.38754000  1
  O  O117  1  0.05342000  0.33359000  0.38754000  1
  O  O118  1  0.16771000  0.33542000  0.07090000  1
  O  O119  1  0.66458000  0.83229000  0.07090000  1
  O  O120  1  0.16771000  0.83229000  0.07090000  1
  O  O121  1  0.83229000  0.66458000  0.57090000  1
  O  O122  1  0.33542000  0.16771000  0.57090000  1
  O  O123  1  0.83229000  0.16771000  0.57090000  1
  O  O124  1  0.27759000  0.33196000  0.11209000  1
  O  O125  1  0.66804000  0.94563000  0.11209000  1
  O  O126  1  0.05437000  0.72241000  0.11209000  1
  O  O127  1  0.66804000  0.72241000  0.11209000  1
  O  O128  1  0.27759000  0.94563000  0.11209000  1
  O  O129  1  0.05437000  0.33196000  0.11209000  1
  O  O130  1  0.72241000  0.66804000  0.61209000  1
  O  O131  1  0.33196000  0.05437000  0.61209000  1
  O  O132  1  0.94563000  0.27759000  0.61209000  1
  O  O133  1  0.33196000  0.27759000  0.61209000  1
  O  O134  1  0.72241000  0.05437000  0.61209000  1
  O  O135  1  0.94563000  0.66804000  0.61209000  1
  O  O136  1  0.00000000  0.00000000  0.86277000  1
  O  O137  1  0.00000000  0.00000000  0.36277000  1
  O  O138  1  0.00000000  0.00000000  0.13691000  1
  O  O139  1  0.00000000  0.00000000  0.63691000  1
  O  O140  1  0.66666667  0.33333333  0.86282000  1
  O  O141  1  0.33333333  0.66666667  0.36282000  1
  O  O142  1  0.33333333  0.66666667  0.13585000  1
  O  O143  1  0.66666667  0.33333333  0.63585000  1
  O  O144  1  0.87864000  0.93932000  0.82004000  1
  O  O145  1  0.06068000  0.93932000  0.82004000  1
  O  O146  1  0.06068000  0.12136000  0.82004000  1
  O  O147  1  0.12136000  0.06068000  0.32004000  1
  O  O148  1  0.93932000  0.06068000  0.32004000  1
  O  O149  1  0.93932000  0.87864000  0.32004000  1
  O  O150  1  0.12128000  0.06064000  0.17969000  1
  O  O151  1  0.93936000  0.06064000  0.17969000  1
  O  O152  1  0.93936000  0.87872000  0.17969000  1
  O  O153  1  0.87872000  0.93936000  0.67969000  1
  O  O154  1  0.06064000  0.93936000  0.67969000  1
  O  O155  1  0.06064000  0.12128000  0.67969000  1
  O  O156  1  0.60599000  0.21198000  0.82009000  1
  O  O157  1  0.78802000  0.39401000  0.82009000  1
  O  O158  1  0.60599000  0.39401000  0.82009000  1
  O  O159  1  0.39401000  0.78802000  0.32009000  1
  O  O160  1  0.21198000  0.60599000  0.32009000  1
  O  O161  1  0.39401000  0.60599000  0.32009000  1
  O  O162  1  0.39396000  0.78792000  0.17866000  1
  O  O163  1  0.21208000  0.60604000  0.17866000  1
  O  O164  1  0.39396000  0.60604000  0.17866000  1
  O  O165  1  0.60604000  0.21208000  0.67866000  1
  O  O166  1  0.78792000  0.39396000  0.67866000  1
  O  O167  1  0.60604000  0.39396000  0.67866000  1
  O  O168  1  0.83324000  0.16676000  0.84668000  1
  O  O169  1  0.83324000  0.66648000  0.84668000  1
  O  O170  1  0.33352000  0.16676000  0.84668000  1
  O  O171  1  0.16676000  0.83324000  0.34668000  1
  O  O172  1  0.16676000  0.33352000  0.34668000  1
  O  O173  1  0.66648000  0.83324000  0.34668000  1
  O  O174  1  0.04521000  0.27363000  0.84449000  1
  O  O175  1  0.72637000  0.77158000  0.84449000  1
  O  O176  1  0.22842000  0.95479000  0.84449000  1
  O  O177  1  0.72637000  0.95479000  0.84449000  1
  O  O178  1  0.04521000  0.77158000  0.84449000  1
  O  O179  1  0.22842000  0.27363000  0.84449000  1
  O  O180  1  0.95479000  0.72637000  0.34449000  1
  O  O181  1  0.27363000  0.22842000  0.34449000  1
  O  O182  1  0.77158000  0.04521000  0.34449000  1
  O  O183  1  0.27363000  0.04521000  0.34449000  1
  O  O184  1  0.95479000  0.22842000  0.34449000  1
  O  O185  1  0.77158000  0.72637000  0.34449000  1
  O  O186  1  0.94063000  0.37871000  0.84440000  1
  O  O187  1  0.62129000  0.56192000  0.84440000  1
  O  O188  1  0.43808000  0.05937000  0.84440000  1
  O  O189  1  0.62129000  0.05937000  0.84440000  1
  O  O190  1  0.94063000  0.56192000  0.84440000  1
  O  O191  1  0.43808000  0.37871000  0.84440000  1
  O  O192  1  0.05937000  0.62129000  0.34440000  1
  O  O193  1  0.37871000  0.43808000  0.34440000  1
  O  O194  1  0.56192000  0.94063000  0.34440000  1
  O  O195  1  0.37871000  0.94063000  0.34440000  1
  O  O196  1  0.05937000  0.43808000  0.34440000  1
  O  O197  1  0.56192000  0.62129000  0.34440000  1
  O  O198  1  0.16708000  0.83292000  0.15332000  1
  O  O199  1  0.16708000  0.33416000  0.15332000  1
  O  O200  1  0.66584000  0.83292000  0.15332000  1
  O  O201  1  0.83292000  0.16708000  0.65332000  1
  O  O202  1  0.83292000  0.66584000  0.65332000  1
  O  O203  1  0.33416000  0.16708000  0.65332000  1
  O  O204  1  0.95496000  0.72674000  0.15516000  1
  O  O205  1  0.27326000  0.22822000  0.15516000  1
  O  O206  1  0.77178000  0.04504000  0.15516000  1
  O  O207  1  0.27326000  0.04504000  0.15516000  1
  O  O208  1  0.95496000  0.22822000  0.15516000  1
  O  O209  1  0.77178000  0.72674000  0.15516000  1
  O  O210  1  0.04504000  0.27326000  0.65516000  1
  O  O211  1  0.72674000  0.77178000  0.65516000  1
  O  O212  1  0.22822000  0.95496000  0.65516000  1
  O  O213  1  0.72674000  0.95496000  0.65516000  1
  O  O214  1  0.04504000  0.77178000  0.65516000  1
  O  O215  1  0.22822000  0.27326000  0.65516000  1
  O  O216  1  0.05841000  0.62074000  0.15487000  1
  O  O217  1  0.37926000  0.43767000  0.15487000  1
  O  O218  1  0.56233000  0.94159000  0.15487000  1
  O  O219  1  0.37926000  0.94159000  0.15487000  1
  O  O220  1  0.05841000  0.43767000  0.15487000  1
  O  O221  1  0.56233000  0.62074000  0.15487000  1
  O  O222  1  0.94159000  0.37926000  0.65487000  1
  O  O223  1  0.62074000  0.56233000  0.65487000  1
  O  O224  1  0.43767000  0.05841000  0.65487000  1
  O  O225  1  0.62074000  0.05841000  0.65487000  1
  O  O226  1  0.94159000  0.56233000  0.65487000  1
  O  O227  1  0.43767000  0.37926000  0.65487000  1
  O  O228  1  0.15648000  0.84352000  0.80002000  1
  O  O229  1  0.15648000  0.31296000  0.80002000  1
  O  O230  1  0.68704000  0.84352000  0.80002000  1
  O  O231  1  0.84352000  0.15648000  0.30002000  1
  O  O232  1  0.84352000  0.68704000  0.30002000  1
  O  O233  1  0.31296000  0.15648000  0.30002000  1
  O  O234  1  0.84348000  0.15652000  0.19960000  1
  O  O235  1  0.84348000  0.68696000  0.19960000  1
  O  O236  1  0.31304000  0.15652000  0.19960000  1
  O  O237  1  0.15652000  0.84348000  0.69960000  1
  O  O238  1  0.15652000  0.31304000  0.69960000  1
  O  O239  1  0.68696000  0.84348000  0.69960000  1
  O  O240  1  0.51030000  0.48970000  0.79990000  1
  O  O241  1  0.51030000  0.02060000  0.79990000  1
  O  O242  1  0.97940000  0.48970000  0.79990000  1
  O  O243  1  0.48970000  0.51030000  0.29990000  1
  O  O244  1  0.48970000  0.97940000  0.29990000  1
  O  O245  1  0.02060000  0.51030000  0.29990000  1
  O  O246  1  0.48942000  0.51058000  0.19948000  1
  O  O247  1  0.48942000  0.97884000  0.19948000  1
  O  O248  1  0.02116000  0.51058000  0.19948000  1
  O  O249  1  0.51058000  0.48942000  0.69948000  1
  O  O250  1  0.51058000  0.02116000  0.69948000  1
  O  O251  1  0.97884000  0.48942000  0.69948000  1
  O  O252  1  0.48046000  0.51954000  0.74967000  1
  O  O253  1  0.48046000  0.96092000  0.74967000  1
  O  O254  1  0.03908000  0.51954000  0.74967000  1
  O  O255  1  0.51954000  0.48046000  0.24967000  1
  O  O256  1  0.51954000  0.03908000  0.24967000  1
  O  O257  1  0.96092000  0.48046000  0.24967000  1
  O  O258  1  0.51519000  0.66659000  0.78565000  1
  O  O259  1  0.33341000  0.84860000  0.78565000  1
  O  O260  1  0.15140000  0.48481000  0.78565000  1
  O  O261  1  0.33341000  0.48481000  0.78565000  1
  O  O262  1  0.51519000  0.84860000  0.78565000  1
  O  O263  1  0.15140000  0.66659000  0.78565000  1
  O  O264  1  0.48481000  0.33341000  0.28565000  1
  O  O265  1  0.66659000  0.15140000  0.28565000  1
  O  O266  1  0.84860000  0.51519000  0.28565000  1
  O  O267  1  0.66659000  0.51519000  0.28565000  1
  O  O268  1  0.48481000  0.15140000  0.28565000  1
  O  O269  1  0.84860000  0.33341000  0.28565000  1
  O  O270  1  0.66652000  0.51522000  0.21380000  1
  O  O271  1  0.48478000  0.15130000  0.21380000  1
  O  O272  1  0.84870000  0.33348000  0.21380000  1
  O  O273  1  0.48478000  0.33348000  0.21380000  1
  O  O274  1  0.66652000  0.15130000  0.21380000  1
  O  O275  1  0.84870000  0.51522000  0.21380000  1
  O  O276  1  0.33348000  0.48478000  0.71380000  1
  O  O277  1  0.51522000  0.84870000  0.71380000  1
  O  O278  1  0.15130000  0.66652000  0.71380000  1
  O  O279  1  0.51522000  0.66652000  0.71380000  1
  O  O280  1  0.33348000  0.84870000  0.71380000  1
  O  O281  1  0.15130000  0.48478000  0.71380000  1
  O  O282  1  0.81370000  0.18630000  0.24977000  1
  O  O283  1  0.81370000  0.62740000  0.24977000  1
  O  O284  1  0.37260000  0.18630000  0.24977000  1
  O  O285  1  0.18630000  0.81370000  0.74977000  1
  O  O286  1  0.18630000  0.37260000  0.74977000  1
  O  O287  1  0.62740000  0.81370000  0.74977000  1
