# generated using pymatgen
data_SiO4
_symmetry_space_group_name_H-M   'P 1'
_cell_length_a   14.40474000
_cell_length_b   14.40474000
_cell_length_c   50.35448000
_cell_angle_alpha   90.00000000
_cell_angle_beta   90.00000000
_cell_angle_gamma   120.00000000
_symmetry_Int_Tables_number   1
_chemical_formula_structural   SiO4
_chemical_formula_sum   'Si1 O4'
_cell_volume   9048.56259059
_cell_formula_units_Z   1
loop_
 _symmetry_equiv_pos_site_id
 _symmetry_equiv_pos_as_xyz
  1  'x, y, z'
loop_
 _atom_site_type_symbol
 _atom_site_label
 _atom_site_symmetry_multiplicity
 _atom_site_fract_x
 _atom_site_fract_y
 _atom_site_fract_z
 _atom_site_occupancy
  Si  Si0  1  0.79304000  0.20696000  0.21949000  1
  O  O1  1  0.84348000  0.15652000  0.19960000  1
  O  O2  1  0.84870000  0.33348000  0.21380000  1
  O  O3  1  0.66652000  0.15130000  0.21380000  1
  O  O4  1  0.81370000  0.18630000  0.24977000  1
