# generated using pymatgen
data_SiO4
_symmetry_space_group_name_H-M   'P 1'
_cell_length_a   14.40474000
_cell_length_b   14.40474000
_cell_length_c   50.35448000
_cell_angle_alpha   90.00000000
_cell_angle_beta   90.00000000
_cell_angle_gamma   120.00000000
_symmetry_Int_Tables_number   1
_chemical_formula_structural   SiO4
_chemical_formula_sum   'Si1 O4'
_cell_volume   9048.56259059
_cell_formula_units_Z   1
loop_
 _symmetry_equiv_pos_site_id
 _symmetry_equiv_pos_as_xyz
  1  'x, y, z'
loop_
 _atom_site_type_symbol
 _atom_site_label
 _atom_site_symmetry_multiplicity
 _atom_site_fract_x
 _atom_site_fract_y
 _atom_site_fract_z
 _atom_site_occupancy
  Si  Si0  1  0.54009000  0.45991000  0.27998000  1
  O  O1  1  0.48970000  0.51030000  0.29990000  1
  O  O2  1  0.51954000  0.48046000  0.24967000  1
  O  O3  1  0.48481000  0.33341000  0.28565000  1
  O  O4  1  0.66659000  0.51519000  0.28565000  1
