# generated using pymatgen
data_SiO4
_symmetry_space_group_name_H-M   'P 1'
_cell_length_a   13.74700000
_cell_length_b   24.06900000
_cell_length_c   18.32900000
_cell_angle_alpha   90.00000000
_cell_angle_beta   90.00000000
_cell_angle_gamma   90.00000000
_symmetry_Int_Tables_number   1
_chemical_formula_structural   SiO4
_chemical_formula_sum   'Si1 O4'
_cell_volume   6064.63615665
_cell_formula_units_Z   1
loop_
 _symmetry_equiv_pos_site_id
 _symmetry_equiv_pos_as_xyz
  1  'x, y, z'
loop_
 _atom_site_type_symbol
 _atom_site_label
 _atom_site_symmetry_multiplicity
 _atom_site_fract_x
 _atom_site_fract_y
 _atom_site_fract_z
 _atom_site_occupancy
  Si  Si0  1  0.31930000  0.93760000  0.81580000  1
  O  O1  1  0.36800000  0.99010000  0.85630000  1
  O  O2  1  0.25000000  0.95750000  0.75000000  1
  O  O3  1  0.25850000  0.90250000  0.87490000  1
  O  O4  1  0.40420000  0.89890000  0.78310000  1
