# generated using pymatgen
data_SiO4
_symmetry_space_group_name_H-M   'P 1'
_cell_length_a   13.74700000
_cell_length_b   24.06900000
_cell_length_c   18.32900000
_cell_angle_alpha   90.00000000
_cell_angle_beta   90.00000000
_cell_angle_gamma   90.00000000
_symmetry_Int_Tables_number   1
_chemical_formula_structural   SiO4
_chemical_formula_sum   'Si1 O4'
_cell_volume   6064.63615665
_cell_formula_units_Z   1
loop_
 _symmetry_equiv_pos_site_id
 _symmetry_equiv_pos_as_xyz
  1  'x, y, z'
loop_
 _atom_site_type_symbol
 _atom_site_label
 _atom_site_symmetry_multiplicity
 _atom_site_fract_x
 _atom_site_fract_y
 _atom_site_fract_z
 _atom_site_occupancy
  Si  Si0  1  0.69470000  0.64970000  0.56360000  1
  O  O1  1  0.67510000  0.58610000  0.58670000  1
  O  O2  1  0.77380000  0.65040000  0.49890000  1
  O  O3  1  0.73560000  0.68450000  0.63200000  1
  O  O4  1  0.59550000  0.67670000  0.53340000  1
