# generated using pymatgen
data_O2
_symmetry_space_group_name_H-M   'P 1'
_cell_length_a   13.74700000
_cell_length_b   24.06900000
_cell_length_c   18.32900000
_cell_angle_alpha   90.00000000
_cell_angle_beta   90.00000000
_cell_angle_gamma   90.00000000
_symmetry_Int_Tables_number   1
_chemical_formula_structural   O2
_chemical_formula_sum   O224
_cell_volume   6064.63615665
_cell_formula_units_Z   112
loop_
 _symmetry_equiv_pos_site_id
 _symmetry_equiv_pos_as_xyz
  1  'x, y, z'
loop_
 _atom_site_type_symbol
 _atom_site_label
 _atom_site_symmetry_multiplicity
 _atom_site_fract_x
 _atom_site_fract_y
 _atom_site_fract_z
 _atom_site_occupancy
  O  O0  1  0.64730000  0.50000000  0.50000000  1
  O  O1  1  0.14730000  0.00000000  0.50000000  1
  O  O2  1  0.35270000  0.50000000  0.50000000  1
  O  O3  1  0.85270000  0.00000000  0.50000000  1
  O  O4  1  0.64730000  0.00000000  0.00000000  1
  O  O5  1  0.14730000  0.50000000  0.00000000  1
  O  O6  1  0.35270000  0.00000000  0.00000000  1
  O  O7  1  0.85270000  0.50000000  0.00000000  1
  O  O8  1  0.50000000  0.45470000  0.43080000  1
  O  O9  1  0.00000000  0.95470000  0.43080000  1
  O  O10  1  0.50000000  0.04530000  0.93080000  1
  O  O11  1  0.00000000  0.54530000  0.93080000  1
  O  O12  1  0.50000000  0.54530000  0.56920000  1
  O  O13  1  0.00000000  0.04530000  0.56920000  1
  O  O14  1  0.50000000  0.95470000  0.06920000  1
  O  O15  1  0.00000000  0.45470000  0.06920000  1
  O  O16  1  0.63200000  0.50990000  0.35630000  1
  O  O17  1  0.13200000  0.00990000  0.35630000  1
  O  O18  1  0.36800000  0.50990000  0.35630000  1
  O  O19  1  0.86800000  0.00990000  0.35630000  1
  O  O20  1  0.63200000  0.99010000  0.85630000  1
  O  O21  1  0.13200000  0.49010000  0.85630000  1
  O  O22  1  0.36800000  0.99010000  0.85630000  1
  O  O23  1  0.86800000  0.49010000  0.85630000  1
  O  O24  1  0.36800000  0.49010000  0.64370000  1
  O  O25  1  0.86800000  0.99010000  0.64370000  1
  O  O26  1  0.63200000  0.49010000  0.64370000  1
  O  O27  1  0.13200000  0.99010000  0.64370000  1
  O  O28  1  0.36800000  0.00990000  0.14370000  1
  O  O29  1  0.86800000  0.50990000  0.14370000  1
  O  O30  1  0.63200000  0.00990000  0.14370000  1
  O  O31  1  0.13200000  0.50990000  0.14370000  1
  O  O32  1  0.67510000  0.41390000  0.41330000  1
  O  O33  1  0.17510000  0.91390000  0.41330000  1
  O  O34  1  0.32490000  0.41390000  0.41330000  1
  O  O35  1  0.82490000  0.91390000  0.41330000  1
  O  O36  1  0.67510000  0.08610000  0.91330000  1
  O  O37  1  0.17510000  0.58610000  0.91330000  1
  O  O38  1  0.32490000  0.08610000  0.91330000  1
  O  O39  1  0.82490000  0.58610000  0.91330000  1
  O  O40  1  0.32490000  0.58610000  0.58670000  1
  O  O41  1  0.82490000  0.08610000  0.58670000  1
  O  O42  1  0.67510000  0.58610000  0.58670000  1
  O  O43  1  0.17510000  0.08610000  0.58670000  1
  O  O44  1  0.32490000  0.91390000  0.08670000  1
  O  O45  1  0.82490000  0.41390000  0.08670000  1
  O  O46  1  0.67510000  0.91390000  0.08670000  1
  O  O47  1  0.17510000  0.41390000  0.08670000  1
  O  O48  1  0.75000000  0.54250000  0.25000000  1
  O  O49  1  0.25000000  0.04250000  0.25000000  1
  O  O50  1  0.25000000  0.54250000  0.25000000  1
  O  O51  1  0.75000000  0.04250000  0.25000000  1
  O  O52  1  0.75000000  0.95750000  0.75000000  1
  O  O53  1  0.25000000  0.45750000  0.75000000  1
  O  O54  1  0.25000000  0.95750000  0.75000000  1
  O  O55  1  0.75000000  0.45750000  0.75000000  1
  O  O56  1  0.74150000  0.59750000  0.37490000  1
  O  O57  1  0.24150000  0.09750000  0.37490000  1
  O  O58  1  0.25850000  0.59750000  0.37490000  1
  O  O59  1  0.75850000  0.09750000  0.37490000  1
  O  O60  1  0.74150000  0.90250000  0.87490000  1
  O  O61  1  0.24150000  0.40250000  0.87490000  1
  O  O62  1  0.25850000  0.90250000  0.87490000  1
  O  O63  1  0.75850000  0.40250000  0.87490000  1
  O  O64  1  0.25850000  0.40250000  0.62510000  1
  O  O65  1  0.75850000  0.90250000  0.62510000  1
  O  O66  1  0.74150000  0.40250000  0.62510000  1
  O  O67  1  0.24150000  0.90250000  0.62510000  1
  O  O68  1  0.25850000  0.09750000  0.12510000  1
  O  O69  1  0.75850000  0.59750000  0.12510000  1
  O  O70  1  0.74150000  0.09750000  0.12510000  1
  O  O71  1  0.24150000  0.59750000  0.12510000  1
  O  O72  1  0.59580000  0.60110000  0.28310000  1
  O  O73  1  0.09580000  0.10110000  0.28310000  1
  O  O74  1  0.40420000  0.60110000  0.28310000  1
  O  O75  1  0.90420000  0.10110000  0.28310000  1
  O  O76  1  0.59580000  0.89890000  0.78310000  1
  O  O77  1  0.09580000  0.39890000  0.78310000  1
  O  O78  1  0.40420000  0.89890000  0.78310000  1
  O  O79  1  0.90420000  0.39890000  0.78310000  1
  O  O80  1  0.40420000  0.39890000  0.71690000  1
  O  O81  1  0.90420000  0.89890000  0.71690000  1
  O  O82  1  0.59580000  0.39890000  0.71690000  1
  O  O83  1  0.09580000  0.89890000  0.71690000  1
  O  O84  1  0.40420000  0.10110000  0.21690000  1
  O  O85  1  0.90420000  0.60110000  0.21690000  1
  O  O86  1  0.59580000  0.10110000  0.21690000  1
  O  O87  1  0.09580000  0.60110000  0.21690000  1
  O  O88  1  0.77380000  0.65040000  0.49890000  1
  O  O89  1  0.27380000  0.15040000  0.49890000  1
  O  O90  1  0.22620000  0.65040000  0.49890000  1
  O  O91  1  0.72620000  0.15040000  0.49890000  1
  O  O92  1  0.77380000  0.84960000  0.99890000  1
  O  O93  1  0.27380000  0.34960000  0.99890000  1
  O  O94  1  0.22620000  0.84960000  0.99890000  1
  O  O95  1  0.72620000  0.34960000  0.99890000  1
  O  O96  1  0.22620000  0.34960000  0.50110000  1
  O  O97  1  0.72620000  0.84960000  0.50110000  1
  O  O98  1  0.77380000  0.34960000  0.50110000  1
  O  O99  1  0.27380000  0.84960000  0.50110000  1
  O  O100  1  0.22620000  0.15040000  0.00110000  1
  O  O101  1  0.72620000  0.65040000  0.00110000  1
  O  O102  1  0.77380000  0.15040000  0.00110000  1
  O  O103  1  0.27380000  0.65040000  0.00110000  1
  O  O104  1  0.74270000  0.70740000  0.37860000  1
  O  O105  1  0.24270000  0.20740000  0.37860000  1
  O  O106  1  0.25730000  0.70740000  0.37860000  1
  O  O107  1  0.75730000  0.20740000  0.37860000  1
  O  O108  1  0.74270000  0.79260000  0.87860000  1
  O  O109  1  0.24270000  0.29260000  0.87860000  1
  O  O110  1  0.25730000  0.79260000  0.87860000  1
  O  O111  1  0.75730000  0.29260000  0.87860000  1
  O  O112  1  0.25730000  0.29260000  0.62140000  1
  O  O113  1  0.75730000  0.79260000  0.62140000  1
  O  O114  1  0.74270000  0.29260000  0.62140000  1
  O  O115  1  0.24270000  0.79260000  0.62140000  1
  O  O116  1  0.25730000  0.20740000  0.12140000  1
  O  O117  1  0.75730000  0.70740000  0.12140000  1
  O  O118  1  0.74270000  0.20740000  0.12140000  1
  O  O119  1  0.24270000  0.70740000  0.12140000  1
  O  O120  1  0.90460000  0.65030000  0.39700000  1
  O  O121  1  0.40460000  0.15030000  0.39700000  1
  O  O122  1  0.09540000  0.65030000  0.39700000  1
  O  O123  1  0.59540000  0.15030000  0.39700000  1
  O  O124  1  0.90460000  0.84970000  0.89700000  1
  O  O125  1  0.40460000  0.34970000  0.89700000  1
  O  O126  1  0.09540000  0.84970000  0.89700000  1
  O  O127  1  0.59540000  0.34970000  0.89700000  1
  O  O128  1  0.09540000  0.34970000  0.60300000  1
  O  O129  1  0.59540000  0.84970000  0.60300000  1
  O  O130  1  0.90460000  0.34970000  0.60300000  1
  O  O131  1  0.40460000  0.84970000  0.60300000  1
  O  O132  1  0.09540000  0.15030000  0.10300000  1
  O  O133  1  0.59540000  0.65030000  0.10300000  1
  O  O134  1  0.90460000  0.15030000  0.10300000  1
  O  O135  1  0.40460000  0.65030000  0.10300000  1
  O  O136  1  0.73560000  0.68450000  0.63200000  1
  O  O137  1  0.23560000  0.18450000  0.63200000  1
  O  O138  1  0.26440000  0.68450000  0.63200000  1
  O  O139  1  0.76440000  0.18450000  0.63200000  1
  O  O140  1  0.73560000  0.81550000  0.13200000  1
  O  O141  1  0.23560000  0.31550000  0.13200000  1
  O  O142  1  0.26440000  0.81550000  0.13200000  1
  O  O143  1  0.76440000  0.31550000  0.13200000  1
  O  O144  1  0.26440000  0.31550000  0.36800000  1
  O  O145  1  0.76440000  0.81550000  0.36800000  1
  O  O146  1  0.73560000  0.31550000  0.36800000  1
  O  O147  1  0.23560000  0.81550000  0.36800000  1
  O  O148  1  0.26440000  0.18450000  0.86800000  1
  O  O149  1  0.76440000  0.68450000  0.86800000  1
  O  O150  1  0.73560000  0.18450000  0.86800000  1
  O  O151  1  0.23560000  0.68450000  0.86800000  1
  O  O152  1  0.59550000  0.67670000  0.53340000  1
  O  O153  1  0.09550000  0.17670000  0.53340000  1
  O  O154  1  0.40450000  0.67670000  0.53340000  1
  O  O155  1  0.90450000  0.17670000  0.53340000  1
  O  O156  1  0.59550000  0.82330000  0.03340000  1
  O  O157  1  0.09550000  0.32330000  0.03340000  1
  O  O158  1  0.40450000  0.82330000  0.03340000  1
  O  O159  1  0.90450000  0.32330000  0.03340000  1
  O  O160  1  0.40450000  0.32330000  0.46660000  1
  O  O161  1  0.90450000  0.82330000  0.46660000  1
  O  O162  1  0.59550000  0.32330000  0.46660000  1
  O  O163  1  0.09550000  0.82330000  0.46660000  1
  O  O164  1  0.40450000  0.17670000  0.96660000  1
  O  O165  1  0.90450000  0.67670000  0.96660000  1
  O  O166  1  0.59550000  0.17670000  0.96660000  1
  O  O167  1  0.09550000  0.67670000  0.96660000  1
  O  O168  1  0.75000000  0.75450000  0.25000000  1
  O  O169  1  0.25000000  0.25450000  0.25000000  1
  O  O170  1  0.25000000  0.75450000  0.25000000  1
  O  O171  1  0.75000000  0.25450000  0.25000000  1
  O  O172  1  0.75000000  0.74550000  0.75000000  1
  O  O173  1  0.25000000  0.24550000  0.75000000  1
  O  O174  1  0.25000000  0.74550000  0.75000000  1
  O  O175  1  0.75000000  0.24550000  0.75000000  1
  O  O176  1  0.59620000  0.76850000  0.33660000  1
  O  O177  1  0.09620000  0.26850000  0.33660000  1
  O  O178  1  0.40380000  0.76850000  0.33660000  1
  O  O179  1  0.90380000  0.26850000  0.33660000  1
  O  O180  1  0.59620000  0.73150000  0.83660000  1
  O  O181  1  0.09620000  0.23150000  0.83660000  1
  O  O182  1  0.40380000  0.73150000  0.83660000  1
  O  O183  1  0.90380000  0.23150000  0.83660000  1
  O  O184  1  0.40380000  0.23150000  0.66340000  1
  O  O185  1  0.90380000  0.73150000  0.66340000  1
  O  O186  1  0.59620000  0.23150000  0.66340000  1
  O  O187  1  0.09620000  0.73150000  0.66340000  1
  O  O188  1  0.40380000  0.26850000  0.16340000  1
  O  O189  1  0.90380000  0.76850000  0.16340000  1
  O  O190  1  0.59620000  0.26850000  0.16340000  1
  O  O191  1  0.09620000  0.76850000  0.16340000  1
  O  O192  1  0.50000000  0.75350000  0.46020000  1
  O  O193  1  0.00000000  0.25350000  0.46020000  1
  O  O194  1  0.50000000  0.74650000  0.96020000  1
  O  O195  1  0.00000000  0.24650000  0.96020000  1
  O  O196  1  0.50000000  0.24650000  0.53980000  1
  O  O197  1  0.00000000  0.74650000  0.53980000  1
  O  O198  1  0.50000000  0.25350000  0.03980000  1
  O  O199  1  0.00000000  0.75350000  0.03980000  1
  O  O200  1  0.50000000  0.75430000  0.60370000  1
  O  O201  1  0.00000000  0.25430000  0.60370000  1
  O  O202  1  0.50000000  0.74570000  0.10370000  1
  O  O203  1  0.00000000  0.24570000  0.10370000  1
  O  O204  1  0.50000000  0.24570000  0.39630000  1
  O  O205  1  0.00000000  0.74570000  0.39630000  1
  O  O206  1  0.50000000  0.25430000  0.89630000  1
  O  O207  1  0.00000000  0.75430000  0.89630000  1
  O  O208  1  0.50000000  0.67630000  0.36070000  1
  O  O209  1  0.00000000  0.17630000  0.36070000  1
  O  O210  1  0.50000000  0.82370000  0.86070000  1
  O  O211  1  0.00000000  0.32370000  0.86070000  1
  O  O212  1  0.50000000  0.32370000  0.63930000  1
  O  O213  1  0.00000000  0.82370000  0.63930000  1
  O  O214  1  0.50000000  0.17630000  0.13930000  1
  O  O215  1  0.00000000  0.67630000  0.13930000  1
  O  O216  1  0.50000000  0.68160000  0.21940000  1
  O  O217  1  0.00000000  0.18160000  0.21940000  1
  O  O218  1  0.50000000  0.81840000  0.71940000  1
  O  O219  1  0.00000000  0.31840000  0.71940000  1
  O  O220  1  0.50000000  0.31840000  0.78060000  1
  O  O221  1  0.00000000  0.81840000  0.78060000  1
  O  O222  1  0.50000000  0.18160000  0.28060000  1
  O  O223  1  0.00000000  0.68160000  0.28060000  1
