# generated using pymatgen
data_Si
_symmetry_space_group_name_H-M   'P 1'
_cell_length_a   13.74700000
_cell_length_b   24.06900000
_cell_length_c   18.32900000
_cell_angle_alpha   90.00000000
_cell_angle_beta   90.00000000
_cell_angle_gamma   90.00000000
_symmetry_Int_Tables_number   1
_chemical_formula_structural   Si
_chemical_formula_sum   Si112
_cell_volume   6064.63615665
_cell_formula_units_Z   112
loop_
 _symmetry_equiv_pos_site_id
 _symmetry_equiv_pos_as_xyz
  1  'x, y, z'
loop_
 _atom_site_type_symbol
 _atom_site_label
 _atom_site_symmetry_multiplicity
 _atom_site_fract_x
 _atom_site_fract_y
 _atom_site_fract_z
 _atom_site_occupancy
  Si  Si0  1  0.61370000  0.47010000  0.42560000  1
  Si  Si1  1  0.11370000  0.97010000  0.42560000  1
  Si  Si2  1  0.38630000  0.47010000  0.42560000  1
  Si  Si3  1  0.88630000  0.97010000  0.42560000  1
  Si  Si4  1  0.61370000  0.02990000  0.92560000  1
  Si  Si5  1  0.11370000  0.52990000  0.92560000  1
  Si  Si6  1  0.38630000  0.02990000  0.92560000  1
  Si  Si7  1  0.88630000  0.52990000  0.92560000  1
  Si  Si8  1  0.38630000  0.52990000  0.57440000  1
  Si  Si9  1  0.88630000  0.02990000  0.57440000  1
  Si  Si10  1  0.61370000  0.52990000  0.57440000  1
  Si  Si11  1  0.11370000  0.02990000  0.57440000  1
  Si  Si12  1  0.38630000  0.97010000  0.07440000  1
  Si  Si13  1  0.88630000  0.47010000  0.07440000  1
  Si  Si14  1  0.61370000  0.97010000  0.07440000  1
  Si  Si15  1  0.11370000  0.47010000  0.07440000  1
  Si  Si16  1  0.68070000  0.56240000  0.31580000  1
  Si  Si17  1  0.18070000  0.06240000  0.31580000  1
  Si  Si18  1  0.31930000  0.56240000  0.31580000  1
  Si  Si19  1  0.81930000  0.06240000  0.31580000  1
  Si  Si20  1  0.68070000  0.93760000  0.81580000  1
  Si  Si21  1  0.18070000  0.43760000  0.81580000  1
  Si  Si22  1  0.31930000  0.93760000  0.81580000  1
  Si  Si23  1  0.81930000  0.43760000  0.81580000  1
  Si  Si24  1  0.31930000  0.43760000  0.68420000  1
  Si  Si25  1  0.81930000  0.93760000  0.68420000  1
  Si  Si26  1  0.68070000  0.43760000  0.68420000  1
  Si  Si27  1  0.18070000  0.93760000  0.68420000  1
  Si  Si28  1  0.31930000  0.06240000  0.18420000  1
  Si  Si29  1  0.81930000  0.56240000  0.18420000  1
  Si  Si30  1  0.68070000  0.06240000  0.18420000  1
  Si  Si31  1  0.18070000  0.56240000  0.18420000  1
  Si  Si32  1  0.78930000  0.65160000  0.41190000  1
  Si  Si33  1  0.28930000  0.15160000  0.41190000  1
  Si  Si34  1  0.21070000  0.65160000  0.41190000  1
  Si  Si35  1  0.71070000  0.15160000  0.41190000  1
  Si  Si36  1  0.78930000  0.84840000  0.91190000  1
  Si  Si37  1  0.28930000  0.34840000  0.91190000  1
  Si  Si38  1  0.21070000  0.84840000  0.91190000  1
  Si  Si39  1  0.71070000  0.34840000  0.91190000  1
  Si  Si40  1  0.21070000  0.34840000  0.58810000  1
  Si  Si41  1  0.71070000  0.84840000  0.58810000  1
  Si  Si42  1  0.78930000  0.34840000  0.58810000  1
  Si  Si43  1  0.28930000  0.84840000  0.58810000  1
  Si  Si44  1  0.21070000  0.15160000  0.08810000  1
  Si  Si45  1  0.71070000  0.65160000  0.08810000  1
  Si  Si46  1  0.78930000  0.15160000  0.08810000  1
  Si  Si47  1  0.28930000  0.65160000  0.08810000  1
  Si  Si48  1  0.69470000  0.64970000  0.56360000  1
  Si  Si49  1  0.19470000  0.14970000  0.56360000  1
  Si  Si50  1  0.30530000  0.64970000  0.56360000  1
  Si  Si51  1  0.80530000  0.14970000  0.56360000  1
  Si  Si52  1  0.69470000  0.85030000  0.06360000  1
  Si  Si53  1  0.19470000  0.35030000  0.06360000  1
  Si  Si54  1  0.30530000  0.85030000  0.06360000  1
  Si  Si55  1  0.80530000  0.35030000  0.06360000  1
  Si  Si56  1  0.30530000  0.35030000  0.43640000  1
  Si  Si57  1  0.80530000  0.85030000  0.43640000  1
  Si  Si58  1  0.69470000  0.35030000  0.43640000  1
  Si  Si59  1  0.19470000  0.85030000  0.43640000  1
  Si  Si60  1  0.30530000  0.14970000  0.93640000  1
  Si  Si61  1  0.80530000  0.64970000  0.93640000  1
  Si  Si62  1  0.69470000  0.14970000  0.93640000  1
  Si  Si63  1  0.19470000  0.64970000  0.93640000  1
  Si  Si64  1  0.71280000  0.76180000  0.33260000  1
  Si  Si65  1  0.21280000  0.26180000  0.33260000  1
  Si  Si66  1  0.28720000  0.76180000  0.33260000  1
  Si  Si67  1  0.78720000  0.26180000  0.33260000  1
  Si  Si68  1  0.71280000  0.73820000  0.83260000  1
  Si  Si69  1  0.21280000  0.23820000  0.83260000  1
  Si  Si70  1  0.28720000  0.73820000  0.83260000  1
  Si  Si71  1  0.78720000  0.23820000  0.83260000  1
  Si  Si72  1  0.28720000  0.23820000  0.66740000  1
  Si  Si73  1  0.78720000  0.73820000  0.66740000  1
  Si  Si74  1  0.71280000  0.23820000  0.66740000  1
  Si  Si75  1  0.21280000  0.73820000  0.66740000  1
  Si  Si76  1  0.28720000  0.26180000  0.16740000  1
  Si  Si77  1  0.78720000  0.76180000  0.16740000  1
  Si  Si78  1  0.71280000  0.26180000  0.16740000  1
  Si  Si79  1  0.21280000  0.76180000  0.16740000  1
  Si  Si80  1  0.50000000  0.71530000  0.53240000  1
  Si  Si81  1  0.00000000  0.21530000  0.53240000  1
  Si  Si82  1  0.50000000  0.78470000  0.03240000  1
  Si  Si83  1  0.00000000  0.28470000  0.03240000  1
  Si  Si84  1  0.50000000  0.28470000  0.46760000  1
  Si  Si85  1  0.00000000  0.78470000  0.46760000  1
  Si  Si86  1  0.50000000  0.21530000  0.96760000  1
  Si  Si87  1  0.00000000  0.71530000  0.96760000  1
  Si  Si88  1  0.50000000  0.74260000  0.37350000  1
  Si  Si89  1  0.00000000  0.24260000  0.37350000  1
  Si  Si90  1  0.50000000  0.75740000  0.87350000  1
  Si  Si91  1  0.00000000  0.25740000  0.87350000  1
  Si  Si92  1  0.50000000  0.25740000  0.62650000  1
  Si  Si93  1  0.00000000  0.75740000  0.62650000  1
  Si  Si94  1  0.50000000  0.24260000  0.12650000  1
  Si  Si95  1  0.00000000  0.74260000  0.12650000  1
  Si  Si96  1  0.50000000  0.63930000  0.28740000  1
  Si  Si97  1  0.00000000  0.13930000  0.28740000  1
  Si  Si98  1  0.50000000  0.86070000  0.78740000  1
  Si  Si99  1  0.00000000  0.36070000  0.78740000  1
  Si  Si100  1  0.50000000  0.36070000  0.71260000  1
  Si  Si101  1  0.00000000  0.86070000  0.71260000  1
  Si  Si102  1  0.50000000  0.13930000  0.21260000  1
  Si  Si103  1  0.00000000  0.63930000  0.21260000  1
  Si  Si104  1  0.00000000  0.68230000  0.36840000  1
  Si  Si105  1  0.50000000  0.18230000  0.36840000  1
  Si  Si106  1  0.00000000  0.81770000  0.86840000  1
  Si  Si107  1  0.50000000  0.31770000  0.86840000  1
  Si  Si108  1  0.00000000  0.31770000  0.63160000  1
  Si  Si109  1  0.50000000  0.81770000  0.63160000  1
  Si  Si110  1  0.00000000  0.18230000  0.13160000  1
  Si  Si111  1  0.50000000  0.68230000  0.13160000  1
