# generated using pymatgen
data_SiO4
_symmetry_space_group_name_H-M   'P 1'
_cell_length_a   24.34500000
_cell_length_b   24.34500000
_cell_length_c   24.34500000
_cell_angle_alpha   90.00000000
_cell_angle_beta   90.00000000
_cell_angle_gamma   90.00000000
_symmetry_Int_Tables_number   1
_chemical_formula_structural   SiO4
_chemical_formula_sum   'Si1 O4'
_cell_volume   14428.77086362
_cell_formula_units_Z   1
loop_
 _symmetry_equiv_pos_site_id
 _symmetry_equiv_pos_as_xyz
  1  'x, y, z'
loop_
 _atom_site_type_symbol
 _atom_site_label
 _atom_site_symmetry_multiplicity
 _atom_site_fract_x
 _atom_site_fract_y
 _atom_site_fract_z
 _atom_site_occupancy
  Si  Si0  1  0.62490000  0.53640000  0.30310000  1
  O  O1  1  0.64580000  0.50000000  0.35420000  1
  O  O2  1  0.67380000  0.57620000  0.28310000  1
  O  O3  1  0.60710000  0.49660000  0.25340000  1
  O  O4  1  0.57300000  0.57300000  0.32170000  1
