# generated using pymatgen
data_Si
_symmetry_space_group_name_H-M   'P 1'
_cell_length_a   8.99200000
_cell_length_b   19.35600000
_cell_length_c   10.39200000
_cell_angle_alpha   90.00000000
_cell_angle_beta   90.00000000
_cell_angle_gamma   90.00000000
_symmetry_Int_Tables_number   1
_chemical_formula_structural   Si
_chemical_formula_sum   Si32
_cell_volume   1808.71878758
_cell_formula_units_Z   32
loop_
 _symmetry_equiv_pos_site_id
 _symmetry_equiv_pos_as_xyz
  1  'x, y, z'
loop_
 _atom_site_type_symbol
 _atom_site_label
 _atom_site_symmetry_multiplicity
 _atom_site_fract_x
 _atom_site_fract_y
 _atom_site_fract_z
 _atom_site_occupancy
  Si  Si0  1  0.17620000  0.45530000  0.38400000  1
  Si  Si1  1  0.67620000  0.95530000  0.38400000  1
  Si  Si2  1  0.82380000  0.45530000  0.38400000  1
  Si  Si3  1  0.32380000  0.95530000  0.38400000  1
  Si  Si4  1  0.17620000  0.04470000  0.88400000  1
  Si  Si5  1  0.67620000  0.54470000  0.88400000  1
  Si  Si6  1  0.82380000  0.04470000  0.88400000  1
  Si  Si7  1  0.32380000  0.54470000  0.88400000  1
  Si  Si8  1  0.82380000  0.54470000  0.61600000  1
  Si  Si9  1  0.32380000  0.04470000  0.61600000  1
  Si  Si10  1  0.17620000  0.54470000  0.61600000  1
  Si  Si11  1  0.67620000  0.04470000  0.61600000  1
  Si  Si12  1  0.82380000  0.95530000  0.11600000  1
  Si  Si13  1  0.32380000  0.45530000  0.11600000  1
  Si  Si14  1  0.17620000  0.95530000  0.11600000  1
  Si  Si15  1  0.67620000  0.45530000  0.11600000  1
  Si  Si16  1  0.32380000  0.29350000  0.11540000  1
  Si  Si17  1  0.82380000  0.79350000  0.11540000  1
  Si  Si18  1  0.67620000  0.29350000  0.11540000  1
  Si  Si19  1  0.17620000  0.79350000  0.11540000  1
  Si  Si20  1  0.32380000  0.20650000  0.61540000  1
  Si  Si21  1  0.82380000  0.70650000  0.61540000  1
  Si  Si22  1  0.67620000  0.20650000  0.61540000  1
  Si  Si23  1  0.17620000  0.70650000  0.61540000  1
  Si  Si24  1  0.67620000  0.70650000  0.88460000  1
  Si  Si25  1  0.17620000  0.20650000  0.88460000  1
  Si  Si26  1  0.32380000  0.70650000  0.88460000  1
  Si  Si27  1  0.82380000  0.20650000  0.88460000  1
  Si  Si28  1  0.67620000  0.79350000  0.38460000  1
  Si  Si29  1  0.17620000  0.29350000  0.38460000  1
  Si  Si30  1  0.32380000  0.79350000  0.38460000  1
  Si  Si31  1  0.82380000  0.29350000  0.38460000  1
