# generated using pymatgen
data_SiO4
_symmetry_space_group_name_H-M   'P 1'
_cell_length_a   8.99200000
_cell_length_b   19.35600000
_cell_length_c   10.39200000
_cell_angle_alpha   90.00000000
_cell_angle_beta   90.00000000
_cell_angle_gamma   90.00000000
_symmetry_Int_Tables_number   1
_chemical_formula_structural   SiO4
_chemical_formula_sum   'Si1 O4'
_cell_volume   1808.71878758
_cell_formula_units_Z   1
loop_
 _symmetry_equiv_pos_site_id
 _symmetry_equiv_pos_as_xyz
  1  'x, y, z'
loop_
 _atom_site_type_symbol
 _atom_site_label
 _atom_site_symmetry_multiplicity
 _atom_site_fract_x
 _atom_site_fract_y
 _atom_site_fract_z
 _atom_site_occupancy
  Si  Si0  1  0.67620000  0.04470000  0.61600000  1
  O  O1  1  0.74620000  0.00000000  0.50000000  1
  O  O2  1  0.75000000  0.02100000  0.75000000  1
  O  O3  1  0.70670000  0.12550000  0.59210000  1
  O  O4  1  0.50000000  0.03080000  0.62200000  1
