# generated using pymatgen
data_SiO4
_symmetry_space_group_name_H-M   'P 1'
_cell_length_a   8.99200000
_cell_length_b   19.35600000
_cell_length_c   10.39200000
_cell_angle_alpha   90.00000000
_cell_angle_beta   90.00000000
_cell_angle_gamma   90.00000000
_symmetry_Int_Tables_number   1
_chemical_formula_structural   SiO4
_chemical_formula_sum   'Si1 O4'
_cell_volume   1808.71878758
_cell_formula_units_Z   1
loop_
 _symmetry_equiv_pos_site_id
 _symmetry_equiv_pos_as_xyz
  1  'x, y, z'
loop_
 _atom_site_type_symbol
 _atom_site_label
 _atom_site_symmetry_multiplicity
 _atom_site_fract_x
 _atom_site_fract_y
 _atom_site_fract_z
 _atom_site_occupancy
  Si  Si0  1  0.17620000  0.29350000  0.38460000  1
  O  O1  1  0.20670000  0.37450000  0.40790000  1
  O  O2  1  0.25000000  0.27050000  0.25000000  1
  O  O3  1  0.25000000  0.25000000  0.50000000  1
  O  O4  1  0.00000000  0.27930000  0.38040000  1
