# generated using pymatgen
data_O2
_symmetry_space_group_name_H-M   'P 1'
_cell_length_a   7.15500000
_cell_length_b   41.82600000
_cell_length_c   7.15800000
_cell_angle_alpha   90.00000000
_cell_angle_beta   90.00300000
_cell_angle_gamma   90.00000000
_symmetry_Int_Tables_number   1
_chemical_formula_structural   O2
_chemical_formula_sum   O72
_cell_volume   2142.13908180
_cell_formula_units_Z   36
loop_
 _symmetry_equiv_pos_site_id
 _symmetry_equiv_pos_as_xyz
  1  'x, y, z'
loop_
 _atom_site_type_symbol
 _atom_site_label
 _atom_site_symmetry_multiplicity
 _atom_site_fract_x
 _atom_site_fract_y
 _atom_site_fract_z
 _atom_site_occupancy
  O  O0  1  0.81640000  0.10270000  0.00000000  1
  O  O1  1  0.31640000  0.60270000  0.00000000  1
  O  O2  1  0.18360000  0.10270000  0.00000000  1
  O  O3  1  0.68360000  0.60270000  0.00000000  1
  O  O4  1  0.18360000  0.89730000  0.00000000  1
  O  O5  1  0.68360000  0.39730000  0.00000000  1
  O  O6  1  0.81640000  0.89730000  0.00000000  1
  O  O7  1  0.31640000  0.39730000  0.00000000  1
  O  O8  1  0.68340000  0.05320000  0.18440000  1
  O  O9  1  0.18340000  0.55320000  0.18440000  1
  O  O10  1  0.31660000  0.05320000  0.81560000  1
  O  O11  1  0.81660000  0.55320000  0.81560000  1
  O  O12  1  0.31660000  0.94680000  0.81560000  1
  O  O13  1  0.81660000  0.44680000  0.81560000  1
  O  O14  1  0.68340000  0.94680000  0.18440000  1
  O  O15  1  0.18340000  0.44680000  0.18440000  1
  O  O16  1  0.00000000  0.04860000  0.00000000  1
  O  O17  1  0.50000000  0.54860000  0.00000000  1
  O  O18  1  0.00000000  0.95140000  0.00000000  1
  O  O19  1  0.50000000  0.45140000  0.00000000  1
  O  O20  1  0.68330000  0.05320000  0.81570000  1
  O  O21  1  0.18330000  0.55320000  0.81570000  1
  O  O22  1  0.31670000  0.05320000  0.18430000  1
  O  O23  1  0.81670000  0.55320000  0.18430000  1
  O  O24  1  0.31670000  0.94680000  0.18430000  1
  O  O25  1  0.81670000  0.44680000  0.18430000  1
  O  O26  1  0.68330000  0.94680000  0.81570000  1
  O  O27  1  0.18330000  0.44680000  0.81570000  1
  O  O28  1  0.50000000  0.04630000  0.50000000  1
  O  O29  1  0.00000000  0.54630000  0.50000000  1
  O  O30  1  0.50000000  0.95370000  0.50000000  1
  O  O31  1  0.00000000  0.45370000  0.50000000  1
  O  O32  1  0.50010000  0.00000000  0.25100000  1
  O  O33  1  0.00010000  0.50000000  0.25100000  1
  O  O34  1  0.49990000  0.00000000  0.74900000  1
  O  O35  1  0.99990000  0.50000000  0.74900000  1
  O  O36  1  0.00000000  0.14730000  0.18350000  1
  O  O37  1  0.50000000  0.64730000  0.18350000  1
  O  O38  1  0.00000000  0.14730000  0.81650000  1
  O  O39  1  0.50000000  0.64730000  0.81650000  1
  O  O40  1  0.00000000  0.85270000  0.81650000  1
  O  O41  1  0.50000000  0.35270000  0.81650000  1
  O  O42  1  0.00000000  0.85270000  0.18350000  1
  O  O43  1  0.50000000  0.35270000  0.18350000  1
  O  O44  1  0.81560000  0.19680000  0.31670000  1
  O  O45  1  0.31560000  0.69680000  0.31670000  1
  O  O46  1  0.18440000  0.19680000  0.68330000  1
  O  O47  1  0.68440000  0.69680000  0.68330000  1
  O  O48  1  0.18440000  0.80320000  0.68330000  1
  O  O49  1  0.68440000  0.30320000  0.68330000  1
  O  O50  1  0.81560000  0.80320000  0.31670000  1
  O  O51  1  0.31560000  0.30320000  0.31670000  1
  O  O52  1  0.00000000  0.20140000  0.00000000  1
  O  O53  1  0.50000000  0.70140000  0.00000000  1
  O  O54  1  0.00000000  0.79860000  0.00000000  1
  O  O55  1  0.50000000  0.29860000  0.00000000  1
  O  O56  1  0.18430000  0.19680000  0.31670000  1
  O  O57  1  0.68430000  0.69680000  0.31670000  1
  O  O58  1  0.81570000  0.19680000  0.68330000  1
  O  O59  1  0.31570000  0.69680000  0.68330000  1
  O  O60  1  0.81570000  0.80320000  0.68330000  1
  O  O61  1  0.31570000  0.30320000  0.68330000  1
  O  O62  1  0.18430000  0.80320000  0.31670000  1
  O  O63  1  0.68430000  0.30320000  0.31670000  1
  O  O64  1  0.50000000  0.20380000  0.50000000  1
  O  O65  1  0.00000000  0.70380000  0.50000000  1
  O  O66  1  0.50000000  0.79620000  0.50000000  1
  O  O67  1  0.00000000  0.29620000  0.50000000  1
  O  O68  1  0.25000000  0.25000000  0.50000000  1
  O  O69  1  0.75000000  0.75000000  0.50000000  1
  O  O70  1  0.75000000  0.25000000  0.50000000  1
  O  O71  1  0.25000000  0.75000000  0.50000000  1
