# generated using pymatgen
data_SiO4
_symmetry_space_group_name_H-M   'P 1'
_cell_length_a   12.60100000
_cell_length_b   12.60100000
_cell_length_c   35.74300000
_cell_angle_alpha   90.00000000
_cell_angle_beta   90.00000000
_cell_angle_gamma   120.00000000
_symmetry_Int_Tables_number   1
_chemical_formula_structural   SiO4
_chemical_formula_sum   'Si1 O4'
_cell_volume   4915.09205262
_cell_formula_units_Z   1
loop_
 _symmetry_equiv_pos_site_id
 _symmetry_equiv_pos_as_xyz
  1  'x, y, z'
loop_
 _atom_site_type_symbol
 _atom_site_label
 _atom_site_symmetry_multiplicity
 _atom_site_fract_x
 _atom_site_fract_y
 _atom_site_fract_z
 _atom_site_occupancy
  Si  Si0  1  0.41970000  0.08990000  0.82160000  1
  O  O1  1  0.34700000  0.03600000  0.86020000  1
  O  O2  1  0.47040000  0.23520000  0.81980000  1
  O  O3  1  0.32900000  0.02400000  0.78680000  1
  O  O4  1  0.53150000  0.06310000  0.81920000  1
