# generated using pymatgen
data_O2
_symmetry_space_group_name_H-M   'P 1'
_cell_length_a   19.40829000
_cell_length_b   15.90107000
_cell_length_c   17.97626000
_cell_angle_alpha   90.00000000
_cell_angle_beta   90.00000000
_cell_angle_gamma   90.00000000
_symmetry_Int_Tables_number   1
_chemical_formula_structural   O2
_chemical_formula_sum   O192
_cell_volume   5547.69993907
_cell_formula_units_Z   96
loop_
 _symmetry_equiv_pos_site_id
 _symmetry_equiv_pos_as_xyz
  1  'x, y, z'
loop_
 _atom_site_type_symbol
 _atom_site_label
 _atom_site_symmetry_multiplicity
 _atom_site_fract_x
 _atom_site_fract_y
 _atom_site_fract_z
 _atom_site_occupancy
  O  O0  1  0.40322000  0.17517000  0.34491000  1
  O  O1  1  0.40322000  0.82483000  0.65509000  1
  O  O2  1  0.40322000  0.32483000  0.84491000  1
  O  O3  1  0.40322000  0.67517000  0.15509000  1
  O  O4  1  0.59678000  0.82483000  0.65509000  1
  O  O5  1  0.59678000  0.17517000  0.34491000  1
  O  O6  1  0.59678000  0.67517000  0.15509000  1
  O  O7  1  0.59678000  0.32483000  0.84491000  1
  O  O8  1  0.90322000  0.67517000  0.34491000  1
  O  O9  1  0.90322000  0.32483000  0.65509000  1
  O  O10  1  0.90322000  0.82483000  0.84491000  1
  O  O11  1  0.90322000  0.17517000  0.15509000  1
  O  O12  1  0.09678000  0.32483000  0.65509000  1
  O  O13  1  0.09678000  0.67517000  0.34491000  1
  O  O14  1  0.09678000  0.17517000  0.15509000  1
  O  O15  1  0.09678000  0.82483000  0.84491000  1
  O  O16  1  0.38135000  0.21834000  0.48346000  1
  O  O17  1  0.38135000  0.78166000  0.51654000  1
  O  O18  1  0.38135000  0.28166000  0.98346000  1
  O  O19  1  0.38135000  0.71834000  0.01654000  1
  O  O20  1  0.61865000  0.78166000  0.51654000  1
  O  O21  1  0.61865000  0.21834000  0.48346000  1
  O  O22  1  0.61865000  0.71834000  0.01654000  1
  O  O23  1  0.61865000  0.28166000  0.98346000  1
  O  O24  1  0.88135000  0.71834000  0.48346000  1
  O  O25  1  0.88135000  0.28166000  0.51654000  1
  O  O26  1  0.88135000  0.78166000  0.98346000  1
  O  O27  1  0.88135000  0.21834000  0.01654000  1
  O  O28  1  0.11865000  0.28166000  0.51654000  1
  O  O29  1  0.11865000  0.71834000  0.48346000  1
  O  O30  1  0.11865000  0.21834000  0.01654000  1
  O  O31  1  0.11865000  0.78166000  0.98346000  1
  O  O32  1  0.39012000  0.05709000  0.44659000  1
  O  O33  1  0.39012000  0.94291000  0.55341000  1
  O  O34  1  0.39012000  0.44291000  0.94659000  1
  O  O35  1  0.39012000  0.55709000  0.05341000  1
  O  O36  1  0.60988000  0.94291000  0.55341000  1
  O  O37  1  0.60988000  0.05709000  0.44659000  1
  O  O38  1  0.60988000  0.55709000  0.05341000  1
  O  O39  1  0.60988000  0.44291000  0.94659000  1
  O  O40  1  0.89012000  0.55709000  0.44659000  1
  O  O41  1  0.89012000  0.44291000  0.55341000  1
  O  O42  1  0.89012000  0.94291000  0.94659000  1
  O  O43  1  0.89012000  0.05709000  0.05341000  1
  O  O44  1  0.10988000  0.44291000  0.55341000  1
  O  O45  1  0.10988000  0.55709000  0.44659000  1
  O  O46  1  0.10988000  0.05709000  0.05341000  1
  O  O47  1  0.10988000  0.94291000  0.94659000  1
  O  O48  1  0.50000000  0.15309000  0.44588000  1
  O  O49  1  0.50000000  0.84691000  0.55412000  1
  O  O50  1  0.50000000  0.34691000  0.94588000  1
  O  O51  1  0.50000000  0.65309000  0.05412000  1
  O  O52  1  0.00000000  0.65309000  0.44588000  1
  O  O53  1  0.00000000  0.34691000  0.55412000  1
  O  O54  1  0.00000000  0.84691000  0.94588000  1
  O  O55  1  0.00000000  0.15309000  0.05412000  1
  O  O56  1  0.29419000  0.93761000  0.45282000  1
  O  O57  1  0.29419000  0.06239000  0.54718000  1
  O  O58  1  0.29419000  0.56239000  0.95282000  1
  O  O59  1  0.29419000  0.43761000  0.04718000  1
  O  O60  1  0.70581000  0.06239000  0.54718000  1
  O  O61  1  0.70581000  0.93761000  0.45282000  1
  O  O62  1  0.70581000  0.43761000  0.04718000  1
  O  O63  1  0.70581000  0.56239000  0.95282000  1
  O  O64  1  0.79419000  0.43761000  0.45282000  1
  O  O65  1  0.79419000  0.56239000  0.54718000  1
  O  O66  1  0.79419000  0.06239000  0.95282000  1
  O  O67  1  0.79419000  0.93761000  0.04718000  1
  O  O68  1  0.20581000  0.56239000  0.54718000  1
  O  O69  1  0.20581000  0.43761000  0.45282000  1
  O  O70  1  0.20581000  0.93761000  0.04718000  1
  O  O71  1  0.20581000  0.06239000  0.95282000  1
  O  O72  1  0.17468000  0.13978000  0.56615000  1
  O  O73  1  0.17468000  0.86022000  0.43385000  1
  O  O74  1  0.17468000  0.36022000  0.06615000  1
  O  O75  1  0.17468000  0.63978000  0.93385000  1
  O  O76  1  0.82532000  0.86022000  0.43385000  1
  O  O77  1  0.82532000  0.13978000  0.56615000  1
  O  O78  1  0.82532000  0.63978000  0.93385000  1
  O  O79  1  0.82532000  0.36022000  0.06615000  1
  O  O80  1  0.67468000  0.63978000  0.56615000  1
  O  O81  1  0.67468000  0.36022000  0.43385000  1
  O  O82  1  0.67468000  0.86022000  0.06615000  1
  O  O83  1  0.67468000  0.13978000  0.93385000  1
  O  O84  1  0.32532000  0.36022000  0.43385000  1
  O  O85  1  0.32532000  0.63978000  0.56615000  1
  O  O86  1  0.32532000  0.13978000  0.93385000  1
  O  O87  1  0.32532000  0.86022000  0.06615000  1
  O  O88  1  0.19276000  0.98853000  0.61912000  1
  O  O89  1  0.19276000  0.01147000  0.38088000  1
  O  O90  1  0.19276000  0.51147000  0.11912000  1
  O  O91  1  0.19276000  0.48853000  0.88088000  1
  O  O92  1  0.80724000  0.01147000  0.38088000  1
  O  O93  1  0.80724000  0.98853000  0.61912000  1
  O  O94  1  0.80724000  0.48853000  0.88088000  1
  O  O95  1  0.80724000  0.51147000  0.11912000  1
  O  O96  1  0.69276000  0.48853000  0.61912000  1
  O  O97  1  0.69276000  0.51147000  0.38088000  1
  O  O98  1  0.69276000  0.01147000  0.11912000  1
  O  O99  1  0.69276000  0.98853000  0.88088000  1
  O  O100  1  0.30724000  0.51147000  0.38088000  1
  O  O101  1  0.30724000  0.48853000  0.61912000  1
  O  O102  1  0.30724000  0.98853000  0.88088000  1
  O  O103  1  0.30724000  0.01147000  0.11912000  1
  O  O104  1  0.26193000  0.11496000  0.67822000  1
  O  O105  1  0.26193000  0.88504000  0.32178000  1
  O  O106  1  0.26193000  0.38504000  0.17822000  1
  O  O107  1  0.26193000  0.61496000  0.82178000  1
  O  O108  1  0.73807000  0.88504000  0.32178000  1
  O  O109  1  0.73807000  0.11496000  0.67822000  1
  O  O110  1  0.73807000  0.61496000  0.82178000  1
  O  O111  1  0.73807000  0.38504000  0.17822000  1
  O  O112  1  0.76193000  0.61496000  0.67822000  1
  O  O113  1  0.76193000  0.38504000  0.32178000  1
  O  O114  1  0.76193000  0.88504000  0.17822000  1
  O  O115  1  0.76193000  0.11496000  0.82178000  1
  O  O116  1  0.23807000  0.38504000  0.32178000  1
  O  O117  1  0.23807000  0.61496000  0.67822000  1
  O  O118  1  0.23807000  0.11496000  0.82178000  1
  O  O119  1  0.23807000  0.88504000  0.17822000  1
  O  O120  1  0.18363000  0.26838000  0.23407000  1
  O  O121  1  0.18363000  0.73162000  0.76593000  1
  O  O122  1  0.18363000  0.23162000  0.73407000  1
  O  O123  1  0.18363000  0.76838000  0.26593000  1
  O  O124  1  0.81637000  0.73162000  0.76593000  1
  O  O125  1  0.81637000  0.26838000  0.23407000  1
  O  O126  1  0.81637000  0.76838000  0.26593000  1
  O  O127  1  0.81637000  0.23162000  0.73407000  1
  O  O128  1  0.68363000  0.76838000  0.23407000  1
  O  O129  1  0.68363000  0.23162000  0.76593000  1
  O  O130  1  0.68363000  0.73162000  0.73407000  1
  O  O131  1  0.68363000  0.26838000  0.26593000  1
  O  O132  1  0.31637000  0.23162000  0.76593000  1
  O  O133  1  0.31637000  0.76838000  0.23407000  1
  O  O134  1  0.31637000  0.26838000  0.26593000  1
  O  O135  1  0.31637000  0.73162000  0.73407000  1
  O  O136  1  0.16034000  0.16512000  0.42130000  1
  O  O137  1  0.16034000  0.83488000  0.57870000  1
  O  O138  1  0.16034000  0.33488000  0.92130000  1
  O  O139  1  0.16034000  0.66512000  0.07870000  1
  O  O140  1  0.83966000  0.83488000  0.57870000  1
  O  O141  1  0.83966000  0.16512000  0.42130000  1
  O  O142  1  0.83966000  0.66512000  0.07870000  1
  O  O143  1  0.83966000  0.33488000  0.92130000  1
  O  O144  1  0.66034000  0.66512000  0.42130000  1
  O  O145  1  0.66034000  0.33488000  0.57870000  1
  O  O146  1  0.66034000  0.83488000  0.92130000  1
  O  O147  1  0.66034000  0.16512000  0.07870000  1
  O  O148  1  0.33966000  0.33488000  0.57870000  1
  O  O149  1  0.33966000  0.66512000  0.42130000  1
  O  O150  1  0.33966000  0.16512000  0.07870000  1
  O  O151  1  0.33966000  0.83488000  0.92130000  1
  O  O152  1  0.25000000  0.25000000  0.50000000  1
  O  O153  1  0.25000000  0.75000000  0.50000000  1
  O  O154  1  0.25000000  0.25000000  0.00000000  1
  O  O155  1  0.25000000  0.75000000  0.00000000  1
  O  O156  1  0.75000000  0.75000000  0.50000000  1
  O  O157  1  0.75000000  0.25000000  0.50000000  1
  O  O158  1  0.75000000  0.75000000  0.00000000  1
  O  O159  1  0.75000000  0.25000000  0.00000000  1
  O  O160  1  0.15190000  0.11856000  0.27977000  1
  O  O161  1  0.15190000  0.88144000  0.72023000  1
  O  O162  1  0.15190000  0.38144000  0.77977000  1
  O  O163  1  0.15190000  0.61856000  0.22023000  1
  O  O164  1  0.84810000  0.88144000  0.72023000  1
  O  O165  1  0.84810000  0.11856000  0.27977000  1
  O  O166  1  0.84810000  0.61856000  0.22023000  1
  O  O167  1  0.84810000  0.38144000  0.77977000  1
  O  O168  1  0.65190000  0.61856000  0.27977000  1
  O  O169  1  0.65190000  0.38144000  0.72023000  1
  O  O170  1  0.65190000  0.88144000  0.77977000  1
  O  O171  1  0.65190000  0.11856000  0.22023000  1
  O  O172  1  0.34810000  0.38144000  0.72023000  1
  O  O173  1  0.34810000  0.61856000  0.27977000  1
  O  O174  1  0.34810000  0.11856000  0.22023000  1
  O  O175  1  0.34810000  0.88144000  0.77977000  1
  O  O176  1  0.27257000  0.13736000  0.34182000  1
  O  O177  1  0.27257000  0.86264000  0.65818000  1
  O  O178  1  0.27257000  0.36264000  0.84182000  1
  O  O179  1  0.27257000  0.63736000  0.15818000  1
  O  O180  1  0.72743000  0.86264000  0.65818000  1
  O  O181  1  0.72743000  0.13736000  0.34182000  1
  O  O182  1  0.72743000  0.63736000  0.15818000  1
  O  O183  1  0.72743000  0.36264000  0.84182000  1
  O  O184  1  0.77257000  0.63736000  0.34182000  1
  O  O185  1  0.77257000  0.36264000  0.65818000  1
  O  O186  1  0.77257000  0.86264000  0.84182000  1
  O  O187  1  0.77257000  0.13736000  0.15818000  1
  O  O188  1  0.22743000  0.36264000  0.65818000  1
  O  O189  1  0.22743000  0.63736000  0.34182000  1
  O  O190  1  0.22743000  0.13736000  0.15818000  1
  O  O191  1  0.22743000  0.86264000  0.84182000  1
