# generated using pymatgen
data_SiO4
_symmetry_space_group_name_H-M   'P 1'
_cell_length_a   19.40829000
_cell_length_b   15.90107000
_cell_length_c   17.97626000
_cell_angle_alpha   90.00000000
_cell_angle_beta   90.00000000
_cell_angle_gamma   90.00000000
_symmetry_Int_Tables_number   1
_chemical_formula_structural   SiO4
_chemical_formula_sum   'Si1 O4'
_cell_volume   5547.69993907
_cell_formula_units_Z   1
loop_
 _symmetry_equiv_pos_site_id
 _symmetry_equiv_pos_as_xyz
  1  'x, y, z'
loop_
 _atom_site_type_symbol
 _atom_site_label
 _atom_site_symmetry_multiplicity
 _atom_site_fract_x
 _atom_site_fract_y
 _atom_site_fract_z
 _atom_site_occupancy
  Si  Si0  1  0.82562000  0.20892000  0.50064000  1
  O  O1  1  0.88135000  0.28166000  0.51654000  1
  O  O2  1  0.82532000  0.13978000  0.56615000  1
  O  O3  1  0.83966000  0.16512000  0.42130000  1
  O  O4  1  0.75000000  0.25000000  0.50000000  1
