# generated using pymatgen
data_SiO4
_symmetry_space_group_name_H-M   'P 1'
_cell_length_a   19.40829000
_cell_length_b   15.90107000
_cell_length_c   17.97626000
_cell_angle_alpha   90.00000000
_cell_angle_beta   90.00000000
_cell_angle_gamma   90.00000000
_symmetry_Int_Tables_number   1
_chemical_formula_structural   SiO4
_chemical_formula_sum   'Si1 O4'
_cell_volume   5547.69993907
_cell_formula_units_Z   1
loop_
 _symmetry_equiv_pos_site_id
 _symmetry_equiv_pos_as_xyz
  1  'x, y, z'
loop_
 _atom_site_type_symbol
 _atom_site_label
 _atom_site_symmetry_multiplicity
 _atom_site_fract_x
 _atom_site_fract_y
 _atom_site_fract_z
 _atom_site_occupancy
  Si  Si0  1  0.76979000  0.57684000  0.89731000  1
  O  O1  1  0.70581000  0.56239000  0.95282000  1
  O  O2  1  0.82532000  0.63978000  0.93385000  1
  O  O3  1  0.80724000  0.48853000  0.88088000  1
  O  O4  1  0.73807000  0.61496000  0.82178000  1
