# generated using pymatgen
data_SiO4
_symmetry_space_group_name_H-M   'P 1'
_cell_length_a   19.40829000
_cell_length_b   15.90107000
_cell_length_c   17.97626000
_cell_angle_alpha   90.00000000
_cell_angle_beta   90.00000000
_cell_angle_gamma   90.00000000
_symmetry_Int_Tables_number   1
_chemical_formula_structural   SiO4
_chemical_formula_sum   'Si1 O4'
_cell_volume   5547.69993907
_cell_formula_units_Z   1
loop_
 _symmetry_equiv_pos_site_id
 _symmetry_equiv_pos_as_xyz
  1  'x, y, z'
loop_
 _atom_site_type_symbol
 _atom_site_label
 _atom_site_symmetry_multiplicity
 _atom_site_fract_x
 _atom_site_fract_y
 _atom_site_fract_z
 _atom_site_occupancy
  Si  Si0  1  0.41844000  0.15054000  0.43031000  1
  O  O1  1  0.40322000  0.17517000  0.34491000  1
  O  O2  1  0.38135000  0.21834000  0.48346000  1
  O  O3  1  0.39012000  0.05709000  0.44659000  1
  O  O4  1  0.50000000  0.15309000  0.44588000  1
