# generated using pymatgen
data_SiO4
_symmetry_space_group_name_H-M   'P 1'
_cell_length_a   13.16800000
_cell_length_b   13.16800000
_cell_length_c   22.57800000
_cell_angle_alpha   90.00000000
_cell_angle_beta   90.00000000
_cell_angle_gamma   120.00000000
_symmetry_Int_Tables_number   1
_chemical_formula_structural   SiO4
_chemical_formula_sum   'Si1 O4'
_cell_volume   3390.43744707
_cell_formula_units_Z   1
loop_
 _symmetry_equiv_pos_site_id
 _symmetry_equiv_pos_as_xyz
  1  'x, y, z'
loop_
 _atom_site_type_symbol
 _atom_site_label
 _atom_site_symmetry_multiplicity
 _atom_site_fract_x
 _atom_site_fract_y
 _atom_site_fract_z
 _atom_site_occupancy
  Si  Si0  1  0.56553333  0.66616667  0.73496667  1
  O  O1  1  0.42883333  0.57116667  0.74376667  1
  O  O2  1  0.64343333  0.63196667  0.77636667  1
  O  O3  1  0.58853333  0.79426667  0.75286667  1
  O  O4  1  0.60113333  0.66666667  0.66666667  1
