# generated using pymatgen
data_SiO4
_symmetry_space_group_name_H-M   'P 1'
_cell_length_a   13.16800000
_cell_length_b   13.16800000
_cell_length_c   22.57800000
_cell_angle_alpha   90.00000000
_cell_angle_beta   90.00000000
_cell_angle_gamma   120.00000000
_symmetry_Int_Tables_number   1
_chemical_formula_structural   SiO4
_chemical_formula_sum   'Si1 O4'
_cell_volume   3390.43744707
_cell_formula_units_Z   1
loop_
 _symmetry_equiv_pos_site_id
 _symmetry_equiv_pos_as_xyz
  1  'x, y, z'
loop_
 _atom_site_type_symbol
 _atom_site_label
 _atom_site_symmetry_multiplicity
 _atom_site_fract_x
 _atom_site_fract_y
 _atom_site_fract_z
 _atom_site_occupancy
  Si  Si0  1  0.57303333  0.90636667  0.16666667  1
  O  O1  1  0.65520000  0.96530000  0.10970000  1
  O  O2  1  0.63196667  0.98853333  0.22363333  1
  O  O3  1  0.44603333  0.89206667  0.15476667  1
  O  O4  1  0.55873333  0.77936667  0.17856667  1
