# generated using pymatgen
data_O2
_symmetry_space_group_name_H-M   'P 1'
_cell_length_a   13.16800000
_cell_length_b   13.16800000
_cell_length_c   22.57800000
_cell_angle_alpha   90.00000000
_cell_angle_beta   90.00000000
_cell_angle_gamma   120.00000000
_symmetry_Int_Tables_number   1
_chemical_formula_structural   O2
_chemical_formula_sum   O108
_cell_volume   3390.43744707
_cell_formula_units_Z   54
loop_
 _symmetry_equiv_pos_site_id
 _symmetry_equiv_pos_as_xyz
  1  'x, y, z'
loop_
 _atom_site_type_symbol
 _atom_site_label
 _atom_site_symmetry_multiplicity
 _atom_site_fract_x
 _atom_site_fract_y
 _atom_site_fract_z
 _atom_site_occupancy
  O  O0  1  0.09550000  0.19100000  0.07710000  1
  O  O1  1  0.76216667  0.52433333  0.41043333  1
  O  O2  1  0.42883333  0.85766667  0.74376667  1
  O  O3  1  0.80900000  0.90450000  0.07710000  1
  O  O4  1  0.47566667  0.23783333  0.41043333  1
  O  O5  1  0.14233333  0.57116667  0.74376667  1
  O  O6  1  0.09550000  0.90450000  0.07710000  1
  O  O7  1  0.76216667  0.23783333  0.41043333  1
  O  O8  1  0.42883333  0.57116667  0.74376667  1
  O  O9  1  0.90450000  0.80900000  0.92290000  1
  O  O10  1  0.57116667  0.14233333  0.25623333  1
  O  O11  1  0.23783333  0.47566667  0.58956667  1
  O  O12  1  0.19100000  0.09550000  0.92290000  1
  O  O13  1  0.85766667  0.42883333  0.25623333  1
  O  O14  1  0.52433333  0.76216667  0.58956667  1
  O  O15  1  0.90450000  0.09550000  0.92290000  1
  O  O16  1  0.57116667  0.42883333  0.25623333  1
  O  O17  1  0.23783333  0.76216667  0.58956667  1
  O  O18  1  0.03470000  0.34480000  0.10970000  1
  O  O19  1  0.70136667  0.67813333  0.44303333  1
  O  O20  1  0.36803333  0.01146667  0.77636667  1
  O  O21  1  0.65520000  0.68990000  0.10970000  1
  O  O22  1  0.32186667  0.02323333  0.44303333  1
  O  O23  1  0.98853333  0.35656667  0.77636667  1
  O  O24  1  0.31010000  0.96530000  0.10970000  1
  O  O25  1  0.97676667  0.29863333  0.44303333  1
  O  O26  1  0.64343333  0.63196667  0.77636667  1
  O  O27  1  0.65520000  0.96530000  0.10970000  1
  O  O28  1  0.32186667  0.29863333  0.44303333  1
  O  O29  1  0.98853333  0.63196667  0.77636667  1
  O  O30  1  0.31010000  0.34480000  0.10970000  1
  O  O31  1  0.97676667  0.67813333  0.44303333  1
  O  O32  1  0.64343333  0.01146667  0.77636667  1
  O  O33  1  0.03470000  0.68990000  0.10970000  1
  O  O34  1  0.70136667  0.02323333  0.44303333  1
  O  O35  1  0.36803333  0.35656667  0.77636667  1
  O  O36  1  0.96530000  0.65520000  0.89030000  1
  O  O37  1  0.63196667  0.98853333  0.22363333  1
  O  O38  1  0.29863333  0.32186667  0.55696667  1
  O  O39  1  0.34480000  0.31010000  0.89030000  1
  O  O40  1  0.01146667  0.64343333  0.22363333  1
  O  O41  1  0.67813333  0.97676667  0.55696667  1
  O  O42  1  0.68990000  0.03470000  0.89030000  1
  O  O43  1  0.35656667  0.36803333  0.22363333  1
  O  O44  1  0.02323333  0.70136667  0.55696667  1
  O  O45  1  0.34480000  0.03470000  0.89030000  1
  O  O46  1  0.01146667  0.36803333  0.22363333  1
  O  O47  1  0.67813333  0.70136667  0.55696667  1
  O  O48  1  0.68990000  0.65520000  0.89030000  1
  O  O49  1  0.35656667  0.98853333  0.22363333  1
  O  O50  1  0.02323333  0.32186667  0.55696667  1
  O  O51  1  0.96530000  0.31010000  0.89030000  1
  O  O52  1  0.63196667  0.64343333  0.22363333  1
  O  O53  1  0.29863333  0.97676667  0.55696667  1
  O  O54  1  0.87240000  0.12760000  0.08620000  1
  O  O55  1  0.53906667  0.46093333  0.41953333  1
  O  O56  1  0.20573333  0.79426667  0.75286667  1
  O  O57  1  0.87240000  0.74480000  0.08620000  1
  O  O58  1  0.53906667  0.07813333  0.41953333  1
  O  O59  1  0.20573333  0.41146667  0.75286667  1
  O  O60  1  0.25520000  0.12760000  0.08620000  1
  O  O61  1  0.92186667  0.46093333  0.41953333  1
  O  O62  1  0.58853333  0.79426667  0.75286667  1
  O  O63  1  0.12760000  0.87240000  0.91380000  1
  O  O64  1  0.79426667  0.20573333  0.24713333  1
  O  O65  1  0.46093333  0.53906667  0.58046667  1
  O  O66  1  0.12760000  0.25520000  0.91380000  1
  O  O67  1  0.79426667  0.58853333  0.24713333  1
  O  O68  1  0.46093333  0.92186667  0.58046667  1
  O  O69  1  0.74480000  0.87240000  0.91380000  1
  O  O70  1  0.41146667  0.20573333  0.24713333  1
  O  O71  1  0.07813333  0.53906667  0.58046667  1
  O  O72  1  0.00000000  0.26780000  0.00000000  1
  O  O73  1  0.66666667  0.60113333  0.33333333  1
  O  O74  1  0.33333333  0.93446667  0.66666667  1
  O  O75  1  0.73220000  0.73220000  0.00000000  1
  O  O76  1  0.39886667  0.06553333  0.33333333  1
  O  O77  1  0.06553333  0.39886667  0.66666667  1
  O  O78  1  0.26780000  0.00000000  0.00000000  1
  O  O79  1  0.93446667  0.33333333  0.33333333  1
  O  O80  1  0.60113333  0.66666667  0.66666667  1
  O  O81  1  0.73220000  0.00000000  0.00000000  1
  O  O82  1  0.39886667  0.33333333  0.33333333  1
  O  O83  1  0.06553333  0.66666667  0.66666667  1
  O  O84  1  0.26780000  0.26780000  0.00000000  1
  O  O85  1  0.93446667  0.60113333  0.33333333  1
  O  O86  1  0.60113333  0.93446667  0.66666667  1
  O  O87  1  0.00000000  0.73220000  0.00000000  1
  O  O88  1  0.66666667  0.06553333  0.33333333  1
  O  O89  1  0.33333333  0.39886667  0.66666667  1
  O  O90  1  0.11270000  0.88730000  0.48810000  1
  O  O91  1  0.77936667  0.22063333  0.82143333  1
  O  O92  1  0.44603333  0.55396667  0.15476667  1
  O  O93  1  0.11270000  0.22540000  0.48810000  1
  O  O94  1  0.77936667  0.55873333  0.82143333  1
  O  O95  1  0.44603333  0.89206667  0.15476667  1
  O  O96  1  0.77460000  0.88730000  0.48810000  1
  O  O97  1  0.44126667  0.22063333  0.82143333  1
  O  O98  1  0.10793333  0.55396667  0.15476667  1
  O  O99  1  0.88730000  0.11270000  0.51190000  1
  O  O100  1  0.55396667  0.44603333  0.84523333  1
  O  O101  1  0.22063333  0.77936667  0.17856667  1
  O  O102  1  0.88730000  0.77460000  0.51190000  1
  O  O103  1  0.55396667  0.10793333  0.84523333  1
  O  O104  1  0.22063333  0.44126667  0.17856667  1
  O  O105  1  0.22540000  0.11270000  0.51190000  1
  O  O106  1  0.89206667  0.44603333  0.84523333  1
  O  O107  1  0.55873333  0.77936667  0.17856667  1
