# generated using pymatgen
data_Si
_symmetry_space_group_name_H-M   'P 1'
_cell_length_a   13.16800000
_cell_length_b   13.16800000
_cell_length_c   22.57800000
_cell_angle_alpha   90.00000000
_cell_angle_beta   90.00000000
_cell_angle_gamma   120.00000000
_symmetry_Int_Tables_number   1
_chemical_formula_structural   Si
_chemical_formula_sum   Si54
_cell_volume   3390.43744707
_cell_formula_units_Z   54
loop_
 _symmetry_equiv_pos_site_id
 _symmetry_equiv_pos_as_xyz
  1  'x, y, z'
loop_
 _atom_site_type_symbol
 _atom_site_label
 _atom_site_symmetry_multiplicity
 _atom_site_fract_x
 _atom_site_fract_y
 _atom_site_fract_z
 _atom_site_occupancy
  Si  Si0  1  0.00050000  0.23270000  0.06830000  1
  Si  Si1  1  0.66716667  0.56603333  0.40163333  1
  Si  Si2  1  0.33383333  0.89936667  0.73496667  1
  Si  Si3  1  0.76730000  0.76780000  0.06830000  1
  Si  Si4  1  0.43396667  0.10113333  0.40163333  1
  Si  Si5  1  0.10063333  0.43446667  0.73496667  1
  Si  Si6  1  0.23220000  0.99950000  0.06830000  1
  Si  Si7  1  0.89886667  0.33283333  0.40163333  1
  Si  Si8  1  0.56553333  0.66616667  0.73496667  1
  Si  Si9  1  0.76730000  0.99950000  0.06830000  1
  Si  Si10  1  0.43396667  0.33283333  0.40163333  1
  Si  Si11  1  0.10063333  0.66616667  0.73496667  1
  Si  Si12  1  0.23220000  0.23270000  0.06830000  1
  Si  Si13  1  0.89886667  0.56603333  0.40163333  1
  Si  Si14  1  0.56553333  0.89936667  0.73496667  1
  Si  Si15  1  0.00050000  0.76780000  0.06830000  1
  Si  Si16  1  0.66716667  0.10113333  0.40163333  1
  Si  Si17  1  0.33383333  0.43446667  0.73496667  1
  Si  Si18  1  0.99950000  0.76730000  0.93170000  1
  Si  Si19  1  0.66616667  0.10063333  0.26503333  1
  Si  Si20  1  0.33283333  0.43396667  0.59836667  1
  Si  Si21  1  0.23270000  0.23220000  0.93170000  1
  Si  Si22  1  0.89936667  0.56553333  0.26503333  1
  Si  Si23  1  0.56603333  0.89886667  0.59836667  1
  Si  Si24  1  0.76780000  0.00050000  0.93170000  1
  Si  Si25  1  0.43446667  0.33383333  0.26503333  1
  Si  Si26  1  0.10113333  0.66716667  0.59836667  1
  Si  Si27  1  0.23270000  0.00050000  0.93170000  1
  Si  Si28  1  0.89936667  0.33383333  0.26503333  1
  Si  Si29  1  0.56603333  0.66716667  0.59836667  1
  Si  Si30  1  0.76780000  0.76730000  0.93170000  1
  Si  Si31  1  0.43446667  0.10063333  0.26503333  1
  Si  Si32  1  0.10113333  0.43396667  0.59836667  1
  Si  Si33  1  0.99950000  0.23220000  0.93170000  1
  Si  Si34  1  0.66616667  0.56553333  0.26503333  1
  Si  Si35  1  0.33283333  0.89886667  0.59836667  1
  Si  Si36  1  0.23970000  0.00000000  0.50000000  1
  Si  Si37  1  0.90636667  0.33333333  0.83333333  1
  Si  Si38  1  0.57303333  0.66666667  0.16666667  1
  Si  Si39  1  0.00000000  0.23970000  0.50000000  1
  Si  Si40  1  0.66666667  0.57303333  0.83333333  1
  Si  Si41  1  0.33333333  0.90636667  0.16666667  1
  Si  Si42  1  0.76030000  0.76030000  0.50000000  1
  Si  Si43  1  0.42696667  0.09363333  0.83333333  1
  Si  Si44  1  0.09363333  0.42696667  0.16666667  1
  Si  Si45  1  0.00000000  0.76030000  0.50000000  1
  Si  Si46  1  0.66666667  0.09363333  0.83333333  1
  Si  Si47  1  0.33333333  0.42696667  0.16666667  1
  Si  Si48  1  0.76030000  0.00000000  0.50000000  1
  Si  Si49  1  0.42696667  0.33333333  0.83333333  1
  Si  Si50  1  0.09363333  0.66666667  0.16666667  1
  Si  Si51  1  0.23970000  0.23970000  0.50000000  1
  Si  Si52  1  0.90636667  0.57303333  0.83333333  1
  Si  Si53  1  0.57303333  0.90636667  0.16666667  1
