# generated using pymatgen
data_SiO4
_symmetry_space_group_name_H-M   'P 1'
_cell_length_a   17.16500000
_cell_length_b   17.16500000
_cell_length_c   19.78500000
_cell_angle_alpha   90.00000000
_cell_angle_beta   90.00000000
_cell_angle_gamma   120.00000000
_symmetry_Int_Tables_number   1
_chemical_formula_structural   SiO4
_chemical_formula_sum   'Si1 O4'
_cell_volume   5048.40632083
_cell_formula_units_Z   1
loop_
 _symmetry_equiv_pos_site_id
 _symmetry_equiv_pos_as_xyz
  1  'x, y, z'
loop_
 _atom_site_type_symbol
 _atom_site_label
 _atom_site_symmetry_multiplicity
 _atom_site_fract_x
 _atom_site_fract_y
 _atom_site_fract_z
 _atom_site_occupancy
  Si  Si0  1  0.15173333  0.48556667  0.39926667  1
  O  O1  1  0.23803333  0.47616667  0.38126667  1
  O  O2  1  0.17493333  0.58746667  0.38586667  1
  O  O3  1  0.06883333  0.41826667  0.35206667  1
  O  O4  1  0.12513333  0.46026667  0.47746667  1
