# generated using pymatgen
data_O2
_symmetry_space_group_name_H-M   'P 1'
_cell_length_a   17.16500000
_cell_length_b   17.16500000
_cell_length_c   19.78500000
_cell_angle_alpha   90.00000000
_cell_angle_beta   90.00000000
_cell_angle_gamma   120.00000000
_symmetry_Int_Tables_number   1
_chemical_formula_structural   O2
_chemical_formula_sum   O180
_cell_volume   5048.40632083
_cell_formula_units_Z   90
loop_
 _symmetry_equiv_pos_site_id
 _symmetry_equiv_pos_as_xyz
  1  'x, y, z'
loop_
 _atom_site_type_symbol
 _atom_site_label
 _atom_site_symmetry_multiplicity
 _atom_site_fract_x
 _atom_site_fract_y
 _atom_site_fract_z
 _atom_site_occupancy
  O  O0  1  0.09530000  0.19050000  0.28540000  1
  O  O1  1  0.76196667  0.52383333  0.61873333  1
  O  O2  1  0.42863333  0.85716667  0.95206667  1
  O  O3  1  0.80950000  0.90480000  0.28540000  1
  O  O4  1  0.47616667  0.23813333  0.61873333  1
  O  O5  1  0.14283333  0.57146667  0.95206667  1
  O  O6  1  0.09520000  0.90470000  0.28540000  1
  O  O7  1  0.76186667  0.23803333  0.61873333  1
  O  O8  1  0.42853333  0.57136667  0.95206667  1
  O  O9  1  0.90470000  0.80950000  0.71460000  1
  O  O10  1  0.57136667  0.14283333  0.04793333  1
  O  O11  1  0.23803333  0.47616667  0.38126667  1
  O  O12  1  0.19050000  0.09520000  0.71460000  1
  O  O13  1  0.85716667  0.42853333  0.04793333  1
  O  O14  1  0.52383333  0.76186667  0.38126667  1
  O  O15  1  0.90480000  0.09530000  0.71460000  1
  O  O16  1  0.57146667  0.42863333  0.04793333  1
  O  O17  1  0.23813333  0.76196667  0.38126667  1
  O  O18  1  0.92080000  0.07920000  0.28080000  1
  O  O19  1  0.58746667  0.41253333  0.61413333  1
  O  O20  1  0.25413333  0.74586667  0.94746667  1
  O  O21  1  0.92080000  0.84160000  0.28080000  1
  O  O22  1  0.58746667  0.17493333  0.61413333  1
  O  O23  1  0.25413333  0.50826667  0.94746667  1
  O  O24  1  0.15840000  0.07920000  0.28080000  1
  O  O25  1  0.82506667  0.41253333  0.61413333  1
  O  O26  1  0.49173333  0.74586667  0.94746667  1
  O  O27  1  0.07920000  0.92080000  0.71920000  1
  O  O28  1  0.74586667  0.25413333  0.05253333  1
  O  O29  1  0.41253333  0.58746667  0.38586667  1
  O  O30  1  0.07920000  0.15840000  0.71920000  1
  O  O31  1  0.74586667  0.49173333  0.05253333  1
  O  O32  1  0.41253333  0.82506667  0.38586667  1
  O  O33  1  0.84160000  0.92080000  0.71920000  1
  O  O34  1  0.50826667  0.25413333  0.05253333  1
  O  O35  1  0.17493333  0.58746667  0.38586667  1
  O  O36  1  0.98390000  0.24840000  0.31460000  1
  O  O37  1  0.65056667  0.58173333  0.64793333  1
  O  O38  1  0.31723333  0.91506667  0.98126667  1
  O  O39  1  0.75160000  0.73550000  0.31460000  1
  O  O40  1  0.41826667  0.06883333  0.64793333  1
  O  O41  1  0.08493333  0.40216667  0.98126667  1
  O  O42  1  0.26450000  0.01610000  0.31460000  1
  O  O43  1  0.93116667  0.34943333  0.64793333  1
  O  O44  1  0.59783333  0.68276667  0.98126667  1
  O  O45  1  0.75160000  0.01610000  0.31460000  1
  O  O46  1  0.41826667  0.34943333  0.64793333  1
  O  O47  1  0.08493333  0.68276667  0.98126667  1
  O  O48  1  0.26450000  0.24840000  0.31460000  1
  O  O49  1  0.93116667  0.58173333  0.64793333  1
  O  O50  1  0.59783333  0.91506667  0.98126667  1
  O  O51  1  0.98390000  0.73550000  0.31460000  1
  O  O52  1  0.65056667  0.06883333  0.64793333  1
  O  O53  1  0.31723333  0.40216667  0.98126667  1
  O  O54  1  0.01610000  0.75160000  0.68540000  1
  O  O55  1  0.68276667  0.08493333  0.01873333  1
  O  O56  1  0.34943333  0.41826667  0.35206667  1
  O  O57  1  0.24840000  0.26450000  0.68540000  1
  O  O58  1  0.91506667  0.59783333  0.01873333  1
  O  O59  1  0.58173333  0.93116667  0.35206667  1
  O  O60  1  0.73550000  0.98390000  0.68540000  1
  O  O61  1  0.40216667  0.31723333  0.01873333  1
  O  O62  1  0.06883333  0.65056667  0.35206667  1
  O  O63  1  0.24840000  0.98390000  0.68540000  1
  O  O64  1  0.91506667  0.31723333  0.01873333  1
  O  O65  1  0.58173333  0.65056667  0.35206667  1
  O  O66  1  0.73550000  0.75160000  0.68540000  1
  O  O67  1  0.40216667  0.08493333  0.01873333  1
  O  O68  1  0.06883333  0.41826667  0.35206667  1
  O  O69  1  0.01610000  0.26450000  0.68540000  1
  O  O70  1  0.68276667  0.59783333  0.01873333  1
  O  O71  1  0.34943333  0.93116667  0.35206667  1
  O  O72  1  0.99820000  0.20640000  0.18920000  1
  O  O73  1  0.66486667  0.53973333  0.52253333  1
  O  O74  1  0.33153333  0.87306667  0.85586667  1
  O  O75  1  0.79360000  0.79180000  0.18920000  1
  O  O76  1  0.46026667  0.12513333  0.52253333  1
  O  O77  1  0.12693333  0.45846667  0.85586667  1
  O  O78  1  0.20820000  0.00180000  0.18920000  1
  O  O79  1  0.87486667  0.33513333  0.52253333  1
  O  O80  1  0.54153333  0.66846667  0.85586667  1
  O  O81  1  0.79360000  0.00180000  0.18920000  1
  O  O82  1  0.46026667  0.33513333  0.52253333  1
  O  O83  1  0.12693333  0.66846667  0.85586667  1
  O  O84  1  0.20820000  0.20640000  0.18920000  1
  O  O85  1  0.87486667  0.53973333  0.52253333  1
  O  O86  1  0.54153333  0.87306667  0.85586667  1
  O  O87  1  0.99820000  0.79180000  0.18920000  1
  O  O88  1  0.66486667  0.12513333  0.52253333  1
  O  O89  1  0.33153333  0.45846667  0.85586667  1
  O  O90  1  0.00180000  0.79360000  0.81080000  1
  O  O91  1  0.66846667  0.12693333  0.14413333  1
  O  O92  1  0.33513333  0.46026667  0.47746667  1
  O  O93  1  0.20640000  0.20820000  0.81080000  1
  O  O94  1  0.87306667  0.54153333  0.14413333  1
  O  O95  1  0.53973333  0.87486667  0.47746667  1
  O  O96  1  0.79180000  0.99820000  0.81080000  1
  O  O97  1  0.45846667  0.33153333  0.14413333  1
  O  O98  1  0.12513333  0.66486667  0.47746667  1
  O  O99  1  0.20640000  0.99820000  0.81080000  1
  O  O100  1  0.87306667  0.33153333  0.14413333  1
  O  O101  1  0.53973333  0.66486667  0.47746667  1
  O  O102  1  0.79180000  0.79360000  0.81080000  1
  O  O103  1  0.45846667  0.12693333  0.14413333  1
  O  O104  1  0.12513333  0.46026667  0.47746667  1
  O  O105  1  0.00180000  0.20820000  0.81080000  1
  O  O106  1  0.66846667  0.54153333  0.14413333  1
  O  O107  1  0.33513333  0.87486667  0.47746667  1
  O  O108  1  0.07430000  0.14860000  0.10280000  1
  O  O109  1  0.74096667  0.48193333  0.43613333  1
  O  O110  1  0.40763333  0.81526667  0.76946667  1
  O  O111  1  0.85140000  0.92570000  0.10280000  1
  O  O112  1  0.51806667  0.25903333  0.43613333  1
  O  O113  1  0.18473333  0.59236667  0.76946667  1
  O  O114  1  0.07430000  0.92570000  0.10280000  1
  O  O115  1  0.74096667  0.25903333  0.43613333  1
  O  O116  1  0.40763333  0.59236667  0.76946667  1
  O  O117  1  0.92570000  0.85140000  0.89720000  1
  O  O118  1  0.59236667  0.18473333  0.23053333  1
  O  O119  1  0.25903333  0.51806667  0.56386667  1
  O  O120  1  0.14860000  0.07430000  0.89720000  1
  O  O121  1  0.81526667  0.40763333  0.23053333  1
  O  O122  1  0.48193333  0.74096667  0.56386667  1
  O  O123  1  0.92570000  0.07430000  0.89720000  1
  O  O124  1  0.59236667  0.40763333  0.23053333  1
  O  O125  1  0.25903333  0.74096667  0.56386667  1
  O  O126  1  0.02540000  0.26420000  0.06370000  1
  O  O127  1  0.69206667  0.59753333  0.39703333  1
  O  O128  1  0.35873333  0.93086667  0.73036667  1
  O  O129  1  0.73580000  0.76120000  0.06370000  1
  O  O130  1  0.40246667  0.09453333  0.39703333  1
  O  O131  1  0.06913333  0.42786667  0.73036667  1
  O  O132  1  0.23880000  0.97460000  0.06370000  1
  O  O133  1  0.90546667  0.30793333  0.39703333  1
  O  O134  1  0.57213333  0.64126667  0.73036667  1
  O  O135  1  0.73580000  0.97460000  0.06370000  1
  O  O136  1  0.40246667  0.30793333  0.39703333  1
  O  O137  1  0.06913333  0.64126667  0.73036667  1
  O  O138  1  0.23880000  0.26420000  0.06370000  1
  O  O139  1  0.90546667  0.59753333  0.39703333  1
  O  O140  1  0.57213333  0.93086667  0.73036667  1
  O  O141  1  0.02540000  0.76120000  0.06370000  1
  O  O142  1  0.69206667  0.09453333  0.39703333  1
  O  O143  1  0.35873333  0.42786667  0.73036667  1
  O  O144  1  0.97460000  0.73580000  0.93630000  1
  O  O145  1  0.64126667  0.06913333  0.26963333  1
  O  O146  1  0.30793333  0.40246667  0.60296667  1
  O  O147  1  0.26420000  0.23880000  0.93630000  1
  O  O148  1  0.93086667  0.57213333  0.26963333  1
  O  O149  1  0.59753333  0.90546667  0.60296667  1
  O  O150  1  0.76120000  0.02540000  0.93630000  1
  O  O151  1  0.42786667  0.35873333  0.26963333  1
  O  O152  1  0.09453333  0.69206667  0.60296667  1
  O  O153  1  0.26420000  0.02540000  0.93630000  1
  O  O154  1  0.93086667  0.35873333  0.26963333  1
  O  O155  1  0.59753333  0.69206667  0.60296667  1
  O  O156  1  0.76120000  0.73580000  0.93630000  1
  O  O157  1  0.42786667  0.06913333  0.26963333  1
  O  O158  1  0.09453333  0.40246667  0.60296667  1
  O  O159  1  0.97460000  0.23880000  0.93630000  1
  O  O160  1  0.64126667  0.57213333  0.26963333  1
  O  O161  1  0.30793333  0.90546667  0.60296667  1
  O  O162  1  0.90270000  0.09730000  0.09090000  1
  O  O163  1  0.56936667  0.43063333  0.42423333  1
  O  O164  1  0.23603333  0.76396667  0.75756667  1
  O  O165  1  0.90270000  0.80540000  0.09090000  1
  O  O166  1  0.56936667  0.13873333  0.42423333  1
  O  O167  1  0.23603333  0.47206667  0.75756667  1
  O  O168  1  0.19460000  0.09730000  0.09090000  1
  O  O169  1  0.86126667  0.43063333  0.42423333  1
  O  O170  1  0.52793333  0.76396667  0.75756667  1
  O  O171  1  0.09730000  0.90270000  0.90910000  1
  O  O172  1  0.76396667  0.23603333  0.24243333  1
  O  O173  1  0.43063333  0.56936667  0.57576667  1
  O  O174  1  0.09730000  0.19460000  0.90910000  1
  O  O175  1  0.76396667  0.52793333  0.24243333  1
  O  O176  1  0.43063333  0.86126667  0.57576667  1
  O  O177  1  0.80540000  0.90270000  0.90910000  1
  O  O178  1  0.47206667  0.23603333  0.24243333  1
  O  O179  1  0.13873333  0.56936667  0.57576667  1
