# generated using pymatgen
data_Si
_symmetry_space_group_name_H-M   'P 1'
_cell_length_a   17.16500000
_cell_length_b   17.16500000
_cell_length_c   19.78500000
_cell_angle_alpha   90.00000000
_cell_angle_beta   90.00000000
_cell_angle_gamma   120.00000000
_symmetry_Int_Tables_number   1
_chemical_formula_structural   Si
_chemical_formula_sum   Si90
_cell_volume   5048.40632083
_cell_formula_units_Z   90
loop_
 _symmetry_equiv_pos_site_id
 _symmetry_equiv_pos_as_xyz
  1  'x, y, z'
loop_
 _atom_site_type_symbol
 _atom_site_label
 _atom_site_symmetry_multiplicity
 _atom_site_fract_x
 _atom_site_fract_y
 _atom_site_fract_z
 _atom_site_occupancy
  Si  Si0  1  0.99950000  0.18110000  0.26740000  1
  Si  Si1  1  0.66616667  0.51443333  0.60073333  1
  Si  Si2  1  0.33283333  0.84776667  0.93406667  1
  Si  Si3  1  0.81890000  0.81840000  0.26740000  1
  Si  Si4  1  0.48556667  0.15173333  0.60073333  1
  Si  Si5  1  0.15223333  0.48506667  0.93406667  1
  Si  Si6  1  0.18160000  0.00050000  0.26740000  1
  Si  Si7  1  0.84826667  0.33383333  0.60073333  1
  Si  Si8  1  0.51493333  0.66716667  0.93406667  1
  Si  Si9  1  0.81890000  0.00050000  0.26740000  1
  Si  Si10  1  0.48556667  0.33383333  0.60073333  1
  Si  Si11  1  0.15223333  0.66716667  0.93406667  1
  Si  Si12  1  0.18160000  0.18110000  0.26740000  1
  Si  Si13  1  0.84826667  0.51443333  0.60073333  1
  Si  Si14  1  0.51493333  0.84776667  0.93406667  1
  Si  Si15  1  0.99950000  0.81840000  0.26740000  1
  Si  Si16  1  0.66616667  0.15173333  0.60073333  1
  Si  Si17  1  0.33283333  0.48506667  0.93406667  1
  Si  Si18  1  0.00050000  0.81890000  0.73260000  1
  Si  Si19  1  0.66716667  0.15223333  0.06593333  1
  Si  Si20  1  0.33383333  0.48556667  0.39926667  1
  Si  Si21  1  0.18110000  0.18160000  0.73260000  1
  Si  Si22  1  0.84776667  0.51493333  0.06593333  1
  Si  Si23  1  0.51443333  0.84826667  0.39926667  1
  Si  Si24  1  0.81840000  0.99950000  0.73260000  1
  Si  Si25  1  0.48506667  0.33283333  0.06593333  1
  Si  Si26  1  0.15173333  0.66616667  0.39926667  1
  Si  Si27  1  0.18110000  0.99950000  0.73260000  1
  Si  Si28  1  0.84776667  0.33283333  0.06593333  1
  Si  Si29  1  0.51443333  0.66616667  0.39926667  1
  Si  Si30  1  0.81840000  0.81890000  0.73260000  1
  Si  Si31  1  0.48506667  0.15223333  0.06593333  1
  Si  Si32  1  0.15173333  0.48556667  0.39926667  1
  Si  Si33  1  0.00050000  0.18160000  0.73260000  1
  Si  Si34  1  0.66716667  0.51493333  0.06593333  1
  Si  Si35  1  0.33383333  0.84826667  0.39926667  1
  Si  Si36  1  0.00020000  0.17910000  0.11170000  1
  Si  Si37  1  0.66686667  0.51243333  0.44503333  1
  Si  Si38  1  0.33353333  0.84576667  0.77836667  1
  Si  Si39  1  0.82090000  0.82110000  0.11170000  1
  Si  Si40  1  0.48756667  0.15443333  0.44503333  1
  Si  Si41  1  0.15423333  0.48776667  0.77836667  1
  Si  Si42  1  0.17890000  0.99980000  0.11170000  1
  Si  Si43  1  0.84556667  0.33313333  0.44503333  1
  Si  Si44  1  0.51223333  0.66646667  0.77836667  1
  Si  Si45  1  0.82090000  0.99980000  0.11170000  1
  Si  Si46  1  0.48756667  0.33313333  0.44503333  1
  Si  Si47  1  0.15423333  0.66646667  0.77836667  1
  Si  Si48  1  0.17890000  0.17910000  0.11170000  1
  Si  Si49  1  0.84556667  0.51243333  0.44503333  1
  Si  Si50  1  0.51223333  0.84576667  0.77836667  1
  Si  Si51  1  0.00020000  0.82110000  0.11170000  1
  Si  Si52  1  0.66686667  0.15443333  0.44503333  1
  Si  Si53  1  0.33353333  0.48776667  0.77836667  1
  Si  Si54  1  0.99980000  0.82090000  0.88830000  1
  Si  Si55  1  0.66646667  0.15423333  0.22163333  1
  Si  Si56  1  0.33313333  0.48756667  0.55496667  1
  Si  Si57  1  0.17910000  0.17890000  0.88830000  1
  Si  Si58  1  0.84576667  0.51223333  0.22163333  1
  Si  Si59  1  0.51243333  0.84556667  0.55496667  1
  Si  Si60  1  0.82110000  0.00020000  0.88830000  1
  Si  Si61  1  0.48776667  0.33353333  0.22163333  1
  Si  Si62  1  0.15443333  0.66686667  0.55496667  1
  Si  Si63  1  0.17910000  0.00020000  0.88830000  1
  Si  Si64  1  0.84576667  0.33353333  0.22163333  1
  Si  Si65  1  0.51243333  0.66686667  0.55496667  1
  Si  Si66  1  0.82110000  0.82090000  0.88830000  1
  Si  Si67  1  0.48776667  0.15423333  0.22163333  1
  Si  Si68  1  0.15443333  0.48756667  0.55496667  1
  Si  Si69  1  0.99980000  0.17890000  0.88830000  1
  Si  Si70  1  0.66646667  0.51223333  0.22163333  1
  Si  Si71  1  0.33313333  0.84556667  0.55496667  1
  Si  Si72  1  0.00000000  0.30560000  0.00000000  1
  Si  Si73  1  0.66666667  0.63893333  0.33333333  1
  Si  Si74  1  0.33333333  0.97226667  0.66666667  1
  Si  Si75  1  0.69440000  0.69440000  0.00000000  1
  Si  Si76  1  0.36106667  0.02773333  0.33333333  1
  Si  Si77  1  0.02773333  0.36106667  0.66666667  1
  Si  Si78  1  0.30560000  0.00000000  0.00000000  1
  Si  Si79  1  0.97226667  0.33333333  0.33333333  1
  Si  Si80  1  0.63893333  0.66666667  0.66666667  1
  Si  Si81  1  0.69440000  0.00000000  0.00000000  1
  Si  Si82  1  0.36106667  0.33333333  0.33333333  1
  Si  Si83  1  0.02773333  0.66666667  0.66666667  1
  Si  Si84  1  0.30560000  0.30560000  0.00000000  1
  Si  Si85  1  0.97226667  0.63893333  0.33333333  1
  Si  Si86  1  0.63893333  0.97226667  0.66666667  1
  Si  Si87  1  0.00000000  0.69440000  0.00000000  1
  Si  Si88  1  0.66666667  0.02773333  0.33333333  1
  Si  Si89  1  0.33333333  0.36106667  0.66666667  1
