# generated using pymatgen
data_Si
_symmetry_space_group_name_H-M   'P 1'
_cell_length_a   18.25600000
_cell_length_b   20.53400000
_cell_length_c   7.54200000
_cell_angle_alpha   90.00000000
_cell_angle_beta   90.00000000
_cell_angle_gamma   90.00000000
_symmetry_Int_Tables_number   1
_chemical_formula_structural   Si
_chemical_formula_sum   Si48
_cell_volume   2827.25976557
_cell_formula_units_Z   48
loop_
 _symmetry_equiv_pos_site_id
 _symmetry_equiv_pos_as_xyz
  1  'x, y, z'
loop_
 _atom_site_type_symbol
 _atom_site_label
 _atom_site_symmetry_multiplicity
 _atom_site_fract_x
 _atom_site_fract_y
 _atom_site_fract_z
 _atom_site_occupancy
  Si  Si0  1  0.30570000  0.07360000  0.04350000  1
  Si  Si1  1  0.80570000  0.57360000  0.04350000  1
  Si  Si2  1  0.69430000  0.07360000  0.04350000  1
  Si  Si3  1  0.19430000  0.57360000  0.04350000  1
  Si  Si4  1  0.30570000  0.92640000  0.54350000  1
  Si  Si5  1  0.80570000  0.42640000  0.54350000  1
  Si  Si6  1  0.69430000  0.92640000  0.54350000  1
  Si  Si7  1  0.19430000  0.42640000  0.54350000  1
  Si  Si8  1  0.69430000  0.92640000  0.95650000  1
  Si  Si9  1  0.19430000  0.42640000  0.95650000  1
  Si  Si10  1  0.30570000  0.92640000  0.95650000  1
  Si  Si11  1  0.80570000  0.42640000  0.95650000  1
  Si  Si12  1  0.69430000  0.07360000  0.45650000  1
  Si  Si13  1  0.19430000  0.57360000  0.45650000  1
  Si  Si14  1  0.30570000  0.07360000  0.45650000  1
  Si  Si15  1  0.80570000  0.57360000  0.45650000  1
  Si  Si16  1  0.30280000  0.31060000  0.04370000  1
  Si  Si17  1  0.80280000  0.81060000  0.04370000  1
  Si  Si18  1  0.69720000  0.31060000  0.04370000  1
  Si  Si19  1  0.19720000  0.81060000  0.04370000  1
  Si  Si20  1  0.30280000  0.68940000  0.54370000  1
  Si  Si21  1  0.80280000  0.18940000  0.54370000  1
  Si  Si22  1  0.69720000  0.68940000  0.54370000  1
  Si  Si23  1  0.19720000  0.18940000  0.54370000  1
  Si  Si24  1  0.69720000  0.68940000  0.95630000  1
  Si  Si25  1  0.19720000  0.18940000  0.95630000  1
  Si  Si26  1  0.30280000  0.68940000  0.95630000  1
  Si  Si27  1  0.80280000  0.18940000  0.95630000  1
  Si  Si28  1  0.69720000  0.31060000  0.45630000  1
  Si  Si29  1  0.19720000  0.81060000  0.45630000  1
  Si  Si30  1  0.30280000  0.31060000  0.45630000  1
  Si  Si31  1  0.80280000  0.81060000  0.45630000  1
  Si  Si32  1  0.08480000  0.37910000  0.25000000  1
  Si  Si33  1  0.58480000  0.87910000  0.25000000  1
  Si  Si34  1  0.91520000  0.37910000  0.25000000  1
  Si  Si35  1  0.41520000  0.87910000  0.25000000  1
  Si  Si36  1  0.08480000  0.62090000  0.75000000  1
  Si  Si37  1  0.58480000  0.12090000  0.75000000  1
  Si  Si38  1  0.91520000  0.62090000  0.75000000  1
  Si  Si39  1  0.41520000  0.12090000  0.75000000  1
  Si  Si40  1  0.08480000  0.22270000  0.25000000  1
  Si  Si41  1  0.58480000  0.72270000  0.25000000  1
  Si  Si42  1  0.91520000  0.22270000  0.25000000  1
  Si  Si43  1  0.41520000  0.72270000  0.25000000  1
  Si  Si44  1  0.08480000  0.77730000  0.75000000  1
  Si  Si45  1  0.58480000  0.27730000  0.75000000  1
  Si  Si46  1  0.91520000  0.77730000  0.75000000  1
  Si  Si47  1  0.41520000  0.27730000  0.75000000  1
