# generated using pymatgen
data_Si
_symmetry_space_group_name_H-M   'P 1'
_cell_length_a   5.25764000
_cell_length_b   22.57891000
_cell_length_c   13.97682000
_cell_angle_alpha   90.00000000
_cell_angle_beta   90.00000000
_cell_angle_gamma   90.00000000
_symmetry_Int_Tables_number   1
_chemical_formula_structural   Si
_chemical_formula_sum   Si28
_cell_volume   1659.21318614
_cell_formula_units_Z   28
loop_
 _symmetry_equiv_pos_site_id
 _symmetry_equiv_pos_as_xyz
  1  'x, y, z'
loop_
 _atom_site_type_symbol
 _atom_site_label
 _atom_site_symmetry_multiplicity
 _atom_site_fract_x
 _atom_site_fract_y
 _atom_site_fract_z
 _atom_site_occupancy
  Si  Si0  1  0.75000000  0.62143000  0.22731000  1
  Si  Si1  1  0.75000000  0.87857000  0.22731000  1
  Si  Si2  1  0.25000000  0.37857000  0.77269000  1
  Si  Si3  1  0.25000000  0.12143000  0.77269000  1
  Si  Si4  1  0.75000000  0.54957000  0.40569000  1
  Si  Si5  1  0.75000000  0.95043000  0.40569000  1
  Si  Si6  1  0.25000000  0.45043000  0.59431000  1
  Si  Si7  1  0.25000000  0.04957000  0.59431000  1
  Si  Si8  1  0.75000000  0.37802000  0.07874000  1
  Si  Si9  1  0.75000000  0.12198000  0.07874000  1
  Si  Si10  1  0.25000000  0.62198000  0.92126000  1
  Si  Si11  1  0.25000000  0.87802000  0.92126000  1
  Si  Si12  1  0.25000000  0.47072000  0.38400000  1
  Si  Si13  1  0.25000000  0.02928000  0.38400000  1
  Si  Si14  1  0.75000000  0.52928000  0.61600000  1
  Si  Si15  1  0.75000000  0.97072000  0.61600000  1
  Si  Si16  1  0.25000000  0.42763000  0.17782000  1
  Si  Si17  1  0.25000000  0.07237000  0.17782000  1
  Si  Si18  1  0.75000000  0.57237000  0.82218000  1
  Si  Si19  1  0.75000000  0.92763000  0.82218000  1
  Si  Si20  1  0.25000000  0.56580000  0.12986000  1
  Si  Si21  1  0.25000000  0.93420000  0.12986000  1
  Si  Si22  1  0.75000000  0.43420000  0.87014000  1
  Si  Si23  1  0.75000000  0.06580000  0.87014000  1
  Si  Si24  1  0.25000000  0.75000000  0.01113000  1
  Si  Si25  1  0.75000000  0.25000000  0.98887000  1
  Si  Si26  1  0.75000000  0.75000000  0.14366000  1
  Si  Si27  1  0.25000000  0.25000000  0.85634000  1
