# generated using pymatgen
data_O2
_symmetry_space_group_name_H-M   'P 1'
_cell_length_a   5.25764000
_cell_length_b   22.57891000
_cell_length_c   13.97682000
_cell_angle_alpha   90.00000000
_cell_angle_beta   90.00000000
_cell_angle_gamma   90.00000000
_symmetry_Int_Tables_number   1
_chemical_formula_structural   O2
_chemical_formula_sum   O56
_cell_volume   1659.21318614
_cell_formula_units_Z   28
loop_
 _symmetry_equiv_pos_site_id
 _symmetry_equiv_pos_as_xyz
  1  'x, y, z'
loop_
 _atom_site_type_symbol
 _atom_site_label
 _atom_site_symmetry_multiplicity
 _atom_site_fract_x
 _atom_site_fract_y
 _atom_site_fract_z
 _atom_site_occupancy
  O  O0  1  0.75000000  0.80808000  0.21040000  1
  O  O1  1  0.75000000  0.69192000  0.21040000  1
  O  O2  1  0.25000000  0.19192000  0.78960000  1
  O  O3  1  0.25000000  0.30808000  0.78960000  1
  O  O4  1  0.00002000  0.75000000  0.07742000  1
  O  O5  1  0.49998000  0.75000000  0.07742000  1
  O  O6  1  0.99998000  0.25000000  0.92258000  1
  O  O7  1  0.50002000  0.25000000  0.92258000  1
  O  O8  1  0.25000000  0.69173000  0.94483000  1
  O  O9  1  0.25000000  0.80827000  0.94483000  1
  O  O10  1  0.75000000  0.30827000  0.05517000  1
  O  O11  1  0.75000000  0.19173000  0.05517000  1
  O  O12  1  0.75000000  0.60846000  0.34068000  1
  O  O13  1  0.75000000  0.89154000  0.34068000  1
  O  O14  1  0.25000000  0.39154000  0.65932000  1
  O  O15  1  0.25000000  0.10846000  0.65932000  1
  O  O16  1  0.00005000  0.59250000  0.18031000  1
  O  O17  1  0.49995000  0.59250000  0.18031000  1
  O  O18  1  0.00005000  0.90750000  0.18031000  1
  O  O19  1  0.49995000  0.90750000  0.18031000  1
  O  O20  1  0.99995000  0.40750000  0.81969000  1
  O  O21  1  0.50005000  0.40750000  0.81969000  1
  O  O22  1  0.99995000  0.09250000  0.81969000  1
  O  O23  1  0.50005000  0.09250000  0.81969000  1
  O  O24  1  0.75000000  0.56643000  0.51763000  1
  O  O25  1  0.75000000  0.93357000  0.51763000  1
  O  O26  1  0.25000000  0.43357000  0.48237000  1
  O  O27  1  0.25000000  0.06643000  0.48237000  1
  O  O28  1  0.99993000  0.51167000  0.38012000  1
  O  O29  1  0.50007000  0.51167000  0.38012000  1
  O  O30  1  0.99993000  0.98833000  0.38012000  1
  O  O31  1  0.50007000  0.98833000  0.38012000  1
  O  O32  1  0.00007000  0.48833000  0.61988000  1
  O  O33  1  0.49993000  0.48833000  0.61988000  1
  O  O34  1  0.00007000  0.01167000  0.61988000  1
  O  O35  1  0.49993000  0.01167000  0.61988000  1
  O  O36  1  0.75000000  0.41611000  0.98149000  1
  O  O37  1  0.75000000  0.08389000  0.98149000  1
  O  O38  1  0.25000000  0.58389000  0.01851000  1
  O  O39  1  0.25000000  0.91611000  0.01851000  1
  O  O40  1  0.50002000  0.39379000  0.14012000  1
  O  O41  1  0.99998000  0.39379000  0.14012000  1
  O  O42  1  0.50002000  0.10621000  0.14012000  1
  O  O43  1  0.99998000  0.10621000  0.14012000  1
  O  O44  1  0.49998000  0.60621000  0.85988000  1
  O  O45  1  0.00002000  0.60621000  0.85988000  1
  O  O46  1  0.49998000  0.89379000  0.85988000  1
  O  O47  1  0.00002000  0.89379000  0.85988000  1
  O  O48  1  0.25000000  0.42697000  0.29305000  1
  O  O49  1  0.25000000  0.07303000  0.29305000  1
  O  O50  1  0.75000000  0.57303000  0.70695000  1
  O  O51  1  0.75000000  0.92697000  0.70695000  1
  O  O52  1  0.25000000  0.49478000  0.13935000  1
  O  O53  1  0.25000000  0.00522000  0.13935000  1
  O  O54  1  0.75000000  0.50522000  0.86065000  1
  O  O55  1  0.75000000  0.99478000  0.86065000  1
