# generated using pymatgen
data_O2
_symmetry_space_group_name_H-M   'P 1'
_cell_length_a   12.71775000
_cell_length_b   21.98932000
_cell_length_c   38.76387000
_cell_angle_alpha   90.00000000
_cell_angle_beta   90.00000000
_cell_angle_gamma   90.00000000
_symmetry_Int_Tables_number   1
_chemical_formula_structural   O2
_chemical_formula_sum   O352
_cell_volume   10840.49744450
_cell_formula_units_Z   176
loop_
 _symmetry_equiv_pos_site_id
 _symmetry_equiv_pos_as_xyz
  1  'x, y, z'
loop_
 _atom_site_type_symbol
 _atom_site_label
 _atom_site_symmetry_multiplicity
 _atom_site_fract_x
 _atom_site_fract_y
 _atom_site_fract_z
 _atom_site_occupancy
  O  O0  1  0.17169000  0.32645000  0.80187000  1
  O  O1  1  0.82831000  0.67355000  0.80187000  1
  O  O2  1  0.82831000  0.32645000  0.80187000  1
  O  O3  1  0.17169000  0.67355000  0.80187000  1
  O  O4  1  0.17169000  0.82645000  0.30187000  1
  O  O5  1  0.82831000  0.17355000  0.30187000  1
  O  O6  1  0.82831000  0.82645000  0.30187000  1
  O  O7  1  0.17169000  0.17355000  0.30187000  1
  O  O8  1  0.10350000  0.40757000  0.84579000  1
  O  O9  1  0.89650000  0.59243000  0.84579000  1
  O  O10  1  0.89650000  0.40757000  0.84579000  1
  O  O11  1  0.10350000  0.59243000  0.84579000  1
  O  O12  1  0.10350000  0.90757000  0.34579000  1
  O  O13  1  0.89650000  0.09243000  0.34579000  1
  O  O14  1  0.89650000  0.90757000  0.34579000  1
  O  O15  1  0.10350000  0.09243000  0.34579000  1
  O  O16  1  0.30524000  0.38544000  0.84140000  1
  O  O17  1  0.69476000  0.61456000  0.84140000  1
  O  O18  1  0.69476000  0.38544000  0.84140000  1
  O  O19  1  0.30524000  0.61456000  0.84140000  1
  O  O20  1  0.30524000  0.88544000  0.34140000  1
  O  O21  1  0.69476000  0.11456000  0.34140000  1
  O  O22  1  0.69476000  0.88544000  0.34140000  1
  O  O23  1  0.30524000  0.11456000  0.34140000  1
  O  O24  1  0.17753000  0.30359000  0.86875000  1
  O  O25  1  0.82247000  0.69641000  0.86875000  1
  O  O26  1  0.82247000  0.30359000  0.86875000  1
  O  O27  1  0.17753000  0.69641000  0.86875000  1
  O  O28  1  0.17753000  0.80359000  0.36875000  1
  O  O29  1  0.82247000  0.19641000  0.36875000  1
  O  O30  1  0.82247000  0.80359000  0.36875000  1
  O  O31  1  0.17753000  0.19641000  0.36875000  1
  O  O32  1  0.30648000  0.38616000  0.96608000  1
  O  O33  1  0.69352000  0.61384000  0.96608000  1
  O  O34  1  0.69352000  0.38616000  0.96608000  1
  O  O35  1  0.30648000  0.61384000  0.96608000  1
  O  O36  1  0.30648000  0.88616000  0.46608000  1
  O  O37  1  0.69352000  0.11384000  0.46608000  1
  O  O38  1  0.69352000  0.88616000  0.46608000  1
  O  O39  1  0.30648000  0.11384000  0.46608000  1
  O  O40  1  0.10363000  0.40865000  0.96315000  1
  O  O41  1  0.89637000  0.59135000  0.96315000  1
  O  O42  1  0.89637000  0.40865000  0.96315000  1
  O  O43  1  0.10363000  0.59135000  0.96315000  1
  O  O44  1  0.10363000  0.90865000  0.46315000  1
  O  O45  1  0.89637000  0.09135000  0.46315000  1
  O  O46  1  0.89637000  0.90865000  0.46315000  1
  O  O47  1  0.10363000  0.09135000  0.46315000  1
  O  O48  1  0.17449000  0.32354000  0.00413000  1
  O  O49  1  0.82551000  0.67646000  0.00413000  1
  O  O50  1  0.82551000  0.32354000  0.00413000  1
  O  O51  1  0.17449000  0.67646000  0.00413000  1
  O  O52  1  0.17449000  0.82354000  0.50413000  1
  O  O53  1  0.82551000  0.17646000  0.50413000  1
  O  O54  1  0.82551000  0.82354000  0.50413000  1
  O  O55  1  0.17449000  0.17646000  0.50413000  1
  O  O56  1  0.17861000  0.30783000  0.93652000  1
  O  O57  1  0.82139000  0.69217000  0.93652000  1
  O  O58  1  0.82139000  0.30783000  0.93652000  1
  O  O59  1  0.17861000  0.69217000  0.93652000  1
  O  O60  1  0.17861000  0.80783000  0.43652000  1
  O  O61  1  0.82139000  0.19217000  0.43652000  1
  O  O62  1  0.82139000  0.80783000  0.43652000  1
  O  O63  1  0.17861000  0.19217000  0.43652000  1
  O  O64  1  0.34405000  0.50000000  0.85782000  1
  O  O65  1  0.65595000  0.50000000  0.85782000  1
  O  O66  1  0.34405000  0.00000000  0.35782000  1
  O  O67  1  0.65595000  0.00000000  0.35782000  1
  O  O68  1  0.50000000  0.42252000  0.85095000  1
  O  O69  1  0.50000000  0.57748000  0.85095000  1
  O  O70  1  0.50000000  0.92252000  0.35095000  1
  O  O71  1  0.50000000  0.07748000  0.35095000  1
  O  O72  1  0.37076000  0.41266000  0.90343000  1
  O  O73  1  0.62924000  0.58734000  0.90343000  1
  O  O74  1  0.62924000  0.41266000  0.90343000  1
  O  O75  1  0.37076000  0.58734000  0.90343000  1
  O  O76  1  0.37076000  0.91266000  0.40343000  1
  O  O77  1  0.62924000  0.08734000  0.40343000  1
  O  O78  1  0.62924000  0.91266000  0.40343000  1
  O  O79  1  0.37076000  0.08734000  0.40343000  1
  O  O80  1  0.14166000  0.20503000  0.90546000  1
  O  O81  1  0.85834000  0.79497000  0.90546000  1
  O  O82  1  0.85834000  0.20503000  0.90546000  1
  O  O83  1  0.14166000  0.79497000  0.90546000  1
  O  O84  1  0.14166000  0.70503000  0.40546000  1
  O  O85  1  0.85834000  0.29497000  0.40546000  1
  O  O86  1  0.85834000  0.70503000  0.40546000  1
  O  O87  1  0.14166000  0.29497000  0.40546000  1
  O  O88  1  0.00000000  0.29268000  0.90321000  1
  O  O89  1  0.00000000  0.70732000  0.90321000  1
  O  O90  1  0.00000000  0.79268000  0.40321000  1
  O  O91  1  0.00000000  0.20732000  0.40321000  1
  O  O92  1  0.18342000  0.20898000  0.79429000  1
  O  O93  1  0.81658000  0.79102000  0.79429000  1
  O  O94  1  0.81658000  0.20898000  0.79429000  1
  O  O95  1  0.18342000  0.79102000  0.79429000  1
  O  O96  1  0.18342000  0.70898000  0.29429000  1
  O  O97  1  0.81658000  0.29102000  0.29429000  1
  O  O98  1  0.81658000  0.70898000  0.29429000  1
  O  O99  1  0.18342000  0.29102000  0.29429000  1
  O  O100  1  0.13742000  0.27839000  0.74061000  1
  O  O101  1  0.86258000  0.72161000  0.74061000  1
  O  O102  1  0.86258000  0.27839000  0.74061000  1
  O  O103  1  0.13742000  0.72161000  0.74061000  1
  O  O104  1  0.13742000  0.77839000  0.24061000  1
  O  O105  1  0.86258000  0.22161000  0.24061000  1
  O  O106  1  0.86258000  0.77839000  0.24061000  1
  O  O107  1  0.13742000  0.22161000  0.24061000  1
  O  O108  1  0.00000000  0.26308000  0.79079000  1
  O  O109  1  0.00000000  0.73692000  0.79079000  1
  O  O110  1  0.00000000  0.76308000  0.29079000  1
  O  O111  1  0.00000000  0.23692000  0.29079000  1
  O  O112  1  0.50000000  0.42395000  0.95597000  1
  O  O113  1  0.50000000  0.57605000  0.95597000  1
  O  O114  1  0.50000000  0.92395000  0.45597000  1
  O  O115  1  0.50000000  0.07605000  0.45597000  1
  O  O116  1  0.34209000  0.50000000  0.94878000  1
  O  O117  1  0.65791000  0.50000000  0.94878000  1
  O  O118  1  0.34209000  0.00000000  0.44878000  1
  O  O119  1  0.65791000  0.00000000  0.44878000  1
  O  O120  1  0.11876000  0.27630000  0.06384000  1
  O  O121  1  0.88124000  0.72370000  0.06384000  1
  O  O122  1  0.88124000  0.27630000  0.06384000  1
  O  O123  1  0.11876000  0.72370000  0.06384000  1
  O  O124  1  0.11876000  0.77630000  0.56384000  1
  O  O125  1  0.88124000  0.22370000  0.56384000  1
  O  O126  1  0.88124000  0.77630000  0.56384000  1
  O  O127  1  0.11876000  0.22370000  0.56384000  1
  O  O128  1  0.00000000  0.25958000  0.00917000  1
  O  O129  1  0.00000000  0.74042000  0.00917000  1
  O  O130  1  0.00000000  0.75958000  0.50917000  1
  O  O131  1  0.00000000  0.24042000  0.50917000  1
  O  O132  1  0.18483000  0.20598000  0.01390000  1
  O  O133  1  0.81517000  0.79402000  0.01390000  1
  O  O134  1  0.81517000  0.20598000  0.01390000  1
  O  O135  1  0.18483000  0.79402000  0.01390000  1
  O  O136  1  0.18483000  0.70598000  0.51390000  1
  O  O137  1  0.81517000  0.29402000  0.51390000  1
  O  O138  1  0.81517000  0.70598000  0.51390000  1
  O  O139  1  0.18483000  0.29402000  0.51390000  1
  O  O140  1  0.13670000  0.08592000  0.90099000  1
  O  O141  1  0.86330000  0.91408000  0.90099000  1
  O  O142  1  0.86330000  0.08592000  0.90099000  1
  O  O143  1  0.13670000  0.91408000  0.90099000  1
  O  O144  1  0.13670000  0.58592000  0.40099000  1
  O  O145  1  0.86330000  0.41408000  0.40099000  1
  O  O146  1  0.86330000  0.58592000  0.40099000  1
  O  O147  1  0.13670000  0.41408000  0.40099000  1
  O  O148  1  0.00000000  0.14317000  0.93989000  1
  O  O149  1  0.00000000  0.85683000  0.93989000  1
  O  O150  1  0.00000000  0.64317000  0.43989000  1
  O  O151  1  0.00000000  0.35683000  0.43989000  1
  O  O152  1  0.19702000  0.13692000  0.95907000  1
  O  O153  1  0.80298000  0.86308000  0.95907000  1
  O  O154  1  0.80298000  0.13692000  0.95907000  1
  O  O155  1  0.19702000  0.86308000  0.95907000  1
  O  O156  1  0.19702000  0.63692000  0.45907000  1
  O  O157  1  0.80298000  0.36308000  0.45907000  1
  O  O158  1  0.80298000  0.63692000  0.45907000  1
  O  O159  1  0.19702000  0.36308000  0.45907000  1
  O  O160  1  0.18807000  0.11572000  0.83756000  1
  O  O161  1  0.81193000  0.88428000  0.83756000  1
  O  O162  1  0.81193000  0.11572000  0.83756000  1
  O  O163  1  0.18807000  0.88428000  0.83756000  1
  O  O164  1  0.18807000  0.61572000  0.33756000  1
  O  O165  1  0.81193000  0.38428000  0.33756000  1
  O  O166  1  0.81193000  0.61572000  0.33756000  1
  O  O167  1  0.18807000  0.38428000  0.33756000  1
  O  O168  1  0.10366000  0.10367000  0.77614000  1
  O  O169  1  0.89634000  0.89633000  0.77614000  1
  O  O170  1  0.89634000  0.10367000  0.77614000  1
  O  O171  1  0.10366000  0.89633000  0.77614000  1
  O  O172  1  0.10366000  0.60367000  0.27614000  1
  O  O173  1  0.89634000  0.39633000  0.27614000  1
  O  O174  1  0.89634000  0.60367000  0.27614000  1
  O  O175  1  0.10366000  0.39633000  0.27614000  1
  O  O176  1  0.30847000  0.11652000  0.78289000  1
  O  O177  1  0.69153000  0.88348000  0.78289000  1
  O  O178  1  0.69153000  0.11652000  0.78289000  1
  O  O179  1  0.30847000  0.88348000  0.78289000  1
  O  O180  1  0.30847000  0.61652000  0.28289000  1
  O  O181  1  0.69153000  0.38348000  0.28289000  1
  O  O182  1  0.69153000  0.61652000  0.28289000  1
  O  O183  1  0.30847000  0.38348000  0.28289000  1
  O  O184  1  0.18592000  0.20365000  0.69039000  1
  O  O185  1  0.81408000  0.79635000  0.69039000  1
  O  O186  1  0.81408000  0.20365000  0.69039000  1
  O  O187  1  0.18592000  0.79635000  0.69039000  1
  O  O188  1  0.18592000  0.70365000  0.19039000  1
  O  O189  1  0.81408000  0.29635000  0.19039000  1
  O  O190  1  0.81408000  0.70365000  0.19039000  1
  O  O191  1  0.18592000  0.29635000  0.19039000  1
  O  O192  1  0.16968000  0.32088000  0.67803000  1
  O  O193  1  0.83032000  0.67912000  0.67803000  1
  O  O194  1  0.83032000  0.32088000  0.67803000  1
  O  O195  1  0.16968000  0.67912000  0.67803000  1
  O  O196  1  0.16968000  0.82088000  0.17803000  1
  O  O197  1  0.83032000  0.17912000  0.17803000  1
  O  O198  1  0.83032000  0.82088000  0.17803000  1
  O  O199  1  0.16968000  0.17912000  0.17803000  1
  O  O200  1  0.00000000  0.25645000  0.69143000  1
  O  O201  1  0.00000000  0.74355000  0.69143000  1
  O  O202  1  0.00000000  0.75645000  0.19143000  1
  O  O203  1  0.00000000  0.24355000  0.19143000  1
  O  O204  1  0.30903000  0.11220000  0.01435000  1
  O  O205  1  0.69097000  0.88780000  0.01435000  1
  O  O206  1  0.69097000  0.11220000  0.01435000  1
  O  O207  1  0.30903000  0.88780000  0.01435000  1
  O  O208  1  0.30903000  0.61220000  0.51435000  1
  O  O209  1  0.69097000  0.38780000  0.51435000  1
  O  O210  1  0.69097000  0.61220000  0.51435000  1
  O  O211  1  0.30903000  0.38780000  0.51435000  1
  O  O212  1  0.10334000  0.09608000  0.01555000  1
  O  O213  1  0.89666000  0.90392000  0.01555000  1
  O  O214  1  0.89666000  0.09608000  0.01555000  1
  O  O215  1  0.10334000  0.90392000  0.01555000  1
  O  O216  1  0.10334000  0.59608000  0.51555000  1
  O  O217  1  0.89666000  0.40392000  0.51555000  1
  O  O218  1  0.89666000  0.59608000  0.51555000  1
  O  O219  1  0.10334000  0.40392000  0.51555000  1
  O  O220  1  0.18174000  0.19793000  0.11146000  1
  O  O221  1  0.81826000  0.80207000  0.11146000  1
  O  O222  1  0.81826000  0.19793000  0.11146000  1
  O  O223  1  0.18174000  0.80207000  0.11146000  1
  O  O224  1  0.18174000  0.69793000  0.61146000  1
  O  O225  1  0.81826000  0.30207000  0.61146000  1
  O  O226  1  0.81826000  0.69793000  0.61146000  1
  O  O227  1  0.18174000  0.30207000  0.61146000  1
  O  O228  1  0.00000000  0.25554000  0.11776000  1
  O  O229  1  0.00000000  0.74446000  0.11776000  1
  O  O230  1  0.00000000  0.75554000  0.61776000  1
  O  O231  1  0.00000000  0.24446000  0.61776000  1
  O  O232  1  0.18012000  0.31486000  0.12389000  1
  O  O233  1  0.81988000  0.68514000  0.12389000  1
  O  O234  1  0.81988000  0.31486000  0.12389000  1
  O  O235  1  0.18012000  0.68514000  0.12389000  1
  O  O236  1  0.18012000  0.81486000  0.62389000  1
  O  O237  1  0.81988000  0.18514000  0.62389000  1
  O  O238  1  0.81988000  0.81486000  0.62389000  1
  O  O239  1  0.18012000  0.18514000  0.62389000  1
  O  O240  1  0.00000000  0.07347000  0.85050000  1
  O  O241  1  0.00000000  0.92653000  0.85050000  1
  O  O242  1  0.00000000  0.57347000  0.35050000  1
  O  O243  1  0.00000000  0.42653000  0.35050000  1
  O  O244  1  0.16204000  0.00000000  0.85450000  1
  O  O245  1  0.83796000  0.00000000  0.85450000  1
  O  O246  1  0.16204000  0.50000000  0.35450000  1
  O  O247  1  0.83796000  0.50000000  0.35450000  1
  O  O248  1  0.50000000  0.07434000  0.77537000  1
  O  O249  1  0.50000000  0.92566000  0.77537000  1
  O  O250  1  0.50000000  0.57434000  0.27537000  1
  O  O251  1  0.50000000  0.42566000  0.27537000  1
  O  O252  1  0.37463000  0.08245000  0.72174000  1
  O  O253  1  0.62537000  0.91755000  0.72174000  1
  O  O254  1  0.62537000  0.08245000  0.72174000  1
  O  O255  1  0.37463000  0.91755000  0.72174000  1
  O  O256  1  0.37463000  0.58245000  0.22174000  1
  O  O257  1  0.62537000  0.41755000  0.22174000  1
  O  O258  1  0.62537000  0.58245000  0.22174000  1
  O  O259  1  0.37463000  0.41755000  0.22174000  1
  O  O260  1  0.33959000  0.00000000  0.76946000  1
  O  O261  1  0.66041000  0.00000000  0.76946000  1
  O  O262  1  0.33959000  0.50000000  0.26946000  1
  O  O263  1  0.66041000  0.50000000  0.26946000  1
  O  O264  1  0.30659000  0.11776000  0.66170000  1
  O  O265  1  0.69341000  0.88224000  0.66170000  1
  O  O266  1  0.69341000  0.11776000  0.66170000  1
  O  O267  1  0.30659000  0.88224000  0.66170000  1
  O  O268  1  0.30659000  0.61776000  0.16170000  1
  O  O269  1  0.69341000  0.38224000  0.16170000  1
  O  O270  1  0.69341000  0.61776000  0.16170000  1
  O  O271  1  0.30659000  0.38224000  0.16170000  1
  O  O272  1  0.10341000  0.10300000  0.66538000  1
  O  O273  1  0.89659000  0.89700000  0.66538000  1
  O  O274  1  0.89659000  0.10300000  0.66538000  1
  O  O275  1  0.10341000  0.89700000  0.66538000  1
  O  O276  1  0.10341000  0.60300000  0.16538000  1
  O  O277  1  0.89659000  0.39700000  0.16538000  1
  O  O278  1  0.89659000  0.60300000  0.16538000  1
  O  O279  1  0.10341000  0.39700000  0.16538000  1
  O  O280  1  0.30428000  0.38541000  0.64069000  1
  O  O281  1  0.69572000  0.61459000  0.64069000  1
  O  O282  1  0.69572000  0.38541000  0.64069000  1
  O  O283  1  0.30428000  0.61459000  0.64069000  1
  O  O284  1  0.30428000  0.88541000  0.14069000  1
  O  O285  1  0.69572000  0.11459000  0.14069000  1
  O  O286  1  0.69572000  0.88541000  0.14069000  1
  O  O287  1  0.30428000  0.11459000  0.14069000  1
  O  O288  1  0.10289000  0.40395000  0.63411000  1
  O  O289  1  0.89711000  0.59605000  0.63411000  1
  O  O290  1  0.89711000  0.40395000  0.63411000  1
  O  O291  1  0.10289000  0.59605000  0.63411000  1
  O  O292  1  0.10289000  0.90395000  0.13411000  1
  O  O293  1  0.89711000  0.09605000  0.13411000  1
  O  O294  1  0.89711000  0.90395000  0.13411000  1
  O  O295  1  0.10289000  0.09605000  0.13411000  1
  O  O296  1  0.33878000  0.00000000  0.03444000  1
  O  O297  1  0.66122000  0.00000000  0.03444000  1
  O  O298  1  0.33878000  0.50000000  0.53444000  1
  O  O299  1  0.66122000  0.50000000  0.53444000  1
  O  O300  1  0.50000000  0.07352000  0.02706000  1
  O  O301  1  0.50000000  0.92648000  0.02706000  1
  O  O302  1  0.50000000  0.57352000  0.52706000  1
  O  O303  1  0.50000000  0.42648000  0.52706000  1
  O  O304  1  0.36774000  0.08874000  0.07860000  1
  O  O305  1  0.63226000  0.91126000  0.07860000  1
  O  O306  1  0.63226000  0.08874000  0.07860000  1
  O  O307  1  0.36774000  0.91126000  0.07860000  1
  O  O308  1  0.36774000  0.58874000  0.57860000  1
  O  O309  1  0.63226000  0.41126000  0.57860000  1
  O  O310  1  0.63226000  0.58874000  0.57860000  1
  O  O311  1  0.36774000  0.41126000  0.57860000  1
  O  O312  1  0.34277000  0.00000000  0.67370000  1
  O  O313  1  0.65723000  0.00000000  0.67370000  1
  O  O314  1  0.34277000  0.50000000  0.17370000  1
  O  O315  1  0.65723000  0.50000000  0.17370000  1
  O  O316  1  0.50000000  0.07674000  0.66827000  1
  O  O317  1  0.50000000  0.92326000  0.66827000  1
  O  O318  1  0.50000000  0.57674000  0.16827000  1
  O  O319  1  0.50000000  0.42326000  0.16827000  1
  O  O320  1  0.50000000  0.42099000  0.63016000  1
  O  O321  1  0.50000000  0.57901000  0.63016000  1
  O  O322  1  0.50000000  0.92099000  0.13016000  1
  O  O323  1  0.50000000  0.07901000  0.13016000  1
  O  O324  1  0.34618000  0.50000000  0.62375000  1
  O  O325  1  0.65382000  0.50000000  0.62375000  1
  O  O326  1  0.34618000  0.00000000  0.12375000  1
  O  O327  1  0.65382000  0.00000000  0.12375000  1
  O  O328  1  0.00000000  0.50000000  0.87191000  1
  O  O329  1  0.00000000  0.00000000  0.37191000  1
  O  O330  1  0.00000000  0.39604000  0.90438000  1
  O  O331  1  0.00000000  0.60396000  0.90438000  1
  O  O332  1  0.00000000  0.89604000  0.40438000  1
  O  O333  1  0.00000000  0.10396000  0.40438000  1
  O  O334  1  0.00000000  0.50000000  0.93637000  1
  O  O335  1  0.00000000  0.00000000  0.43637000  1
  O  O336  1  0.00000000  0.00000000  0.77595000  1
  O  O337  1  0.00000000  0.50000000  0.27595000  1
  O  O338  1  0.00000000  0.07010000  0.72109000  1
  O  O339  1  0.00000000  0.92990000  0.72109000  1
  O  O340  1  0.00000000  0.57010000  0.22109000  1
  O  O341  1  0.00000000  0.42990000  0.22109000  1
  O  O342  1  0.00000000  0.00000000  0.03638000  1
  O  O343  1  0.00000000  0.50000000  0.53638000  1
  O  O344  1  0.00000000  0.09814000  0.07469000  1
  O  O345  1  0.00000000  0.90186000  0.07469000  1
  O  O346  1  0.00000000  0.59814000  0.57469000  1
  O  O347  1  0.00000000  0.40186000  0.57469000  1
  O  O348  1  0.00000000  0.00000000  0.66622000  1
  O  O349  1  0.00000000  0.50000000  0.16622000  1
  O  O350  1  0.00000000  0.50000000  0.61300000  1
  O  O351  1  0.00000000  0.00000000  0.11300000  1
