# generated using pymatgen
data_Si
_symmetry_space_group_name_H-M   'P 1'
_cell_length_a   12.71775000
_cell_length_b   21.98932000
_cell_length_c   38.76387000
_cell_angle_alpha   90.00000000
_cell_angle_beta   90.00000000
_cell_angle_gamma   90.00000000
_symmetry_Int_Tables_number   1
_chemical_formula_structural   Si
_chemical_formula_sum   Si176
_cell_volume   10840.49744450
_cell_formula_units_Z   176
loop_
 _symmetry_equiv_pos_site_id
 _symmetry_equiv_pos_as_xyz
  1  'x, y, z'
loop_
 _atom_site_type_symbol
 _atom_site_label
 _atom_site_symmetry_multiplicity
 _atom_site_fract_x
 _atom_site_fract_y
 _atom_site_fract_z
 _atom_site_occupancy
  Si  Si0  1  0.19001000  0.35523000  0.83960000  1
  Si  Si1  1  0.80999000  0.64477000  0.83960000  1
  Si  Si2  1  0.80999000  0.35523000  0.83960000  1
  Si  Si3  1  0.19001000  0.64477000  0.83960000  1
  Si  Si4  1  0.19001000  0.85523000  0.33960000  1
  Si  Si5  1  0.80999000  0.14477000  0.33960000  1
  Si  Si6  1  0.80999000  0.85523000  0.33960000  1
  Si  Si7  1  0.19001000  0.14477000  0.33960000  1
  Si  Si8  1  0.19102000  0.35623000  0.96737000  1
  Si  Si9  1  0.80898000  0.64377000  0.96737000  1
  Si  Si10  1  0.80898000  0.35623000  0.96737000  1
  Si  Si11  1  0.19102000  0.64377000  0.96737000  1
  Si  Si12  1  0.19102000  0.85623000  0.46737000  1
  Si  Si13  1  0.80898000  0.14377000  0.46737000  1
  Si  Si14  1  0.80898000  0.85623000  0.46737000  1
  Si  Si15  1  0.19102000  0.14377000  0.46737000  1
  Si  Si16  1  0.37979000  0.43039000  0.86324000  1
  Si  Si17  1  0.62021000  0.56961000  0.86324000  1
  Si  Si18  1  0.62021000  0.43039000  0.86324000  1
  Si  Si19  1  0.37979000  0.56961000  0.86324000  1
  Si  Si20  1  0.37979000  0.93039000  0.36324000  1
  Si  Si21  1  0.62021000  0.06961000  0.36324000  1
  Si  Si22  1  0.62021000  0.93039000  0.36324000  1
  Si  Si23  1  0.37979000  0.06961000  0.36324000  1
  Si  Si24  1  0.12371000  0.27744000  0.90330000  1
  Si  Si25  1  0.87629000  0.72256000  0.90330000  1
  Si  Si26  1  0.87629000  0.27744000  0.90330000  1
  Si  Si27  1  0.12371000  0.72256000  0.90330000  1
  Si  Si28  1  0.12371000  0.77744000  0.40330000  1
  Si  Si29  1  0.87629000  0.22256000  0.40330000  1
  Si  Si30  1  0.87629000  0.77744000  0.40330000  1
  Si  Si31  1  0.12371000  0.22256000  0.40330000  1
  Si  Si32  1  0.12285000  0.26918000  0.78151000  1
  Si  Si33  1  0.87715000  0.73082000  0.78151000  1
  Si  Si34  1  0.87715000  0.26918000  0.78151000  1
  Si  Si35  1  0.12285000  0.73082000  0.78151000  1
  Si  Si36  1  0.12285000  0.76918000  0.28151000  1
  Si  Si37  1  0.87715000  0.23082000  0.28151000  1
  Si  Si38  1  0.87715000  0.76918000  0.28151000  1
  Si  Si39  1  0.12285000  0.23082000  0.28151000  1
  Si  Si40  1  0.37977000  0.43070000  0.94355000  1
  Si  Si41  1  0.62023000  0.56930000  0.94355000  1
  Si  Si42  1  0.62023000  0.43070000  0.94355000  1
  Si  Si43  1  0.37977000  0.56930000  0.94355000  1
  Si  Si44  1  0.37977000  0.93070000  0.44355000  1
  Si  Si45  1  0.62023000  0.06930000  0.44355000  1
  Si  Si46  1  0.62023000  0.93070000  0.44355000  1
  Si  Si47  1  0.37977000  0.06930000  0.44355000  1
  Si  Si48  1  0.11908000  0.26648000  0.02272000  1
  Si  Si49  1  0.88092000  0.73352000  0.02272000  1
  Si  Si50  1  0.88092000  0.26648000  0.02272000  1
  Si  Si51  1  0.11908000  0.73352000  0.02272000  1
  Si  Si52  1  0.11908000  0.76648000  0.52272000  1
  Si  Si53  1  0.88092000  0.23352000  0.52272000  1
  Si  Si54  1  0.88092000  0.76648000  0.52272000  1
  Si  Si55  1  0.11908000  0.23352000  0.52272000  1
  Si  Si56  1  0.11973000  0.14307000  0.92637000  1
  Si  Si57  1  0.88027000  0.85693000  0.92637000  1
  Si  Si58  1  0.88027000  0.14307000  0.92637000  1
  Si  Si59  1  0.11973000  0.85693000  0.92637000  1
  Si  Si60  1  0.11973000  0.64307000  0.42637000  1
  Si  Si61  1  0.88027000  0.35693000  0.42637000  1
  Si  Si62  1  0.88027000  0.64307000  0.42637000  1
  Si  Si63  1  0.11973000  0.35693000  0.42637000  1
  Si  Si64  1  0.19547000  0.13640000  0.79779000  1
  Si  Si65  1  0.80453000  0.86360000  0.79779000  1
  Si  Si66  1  0.80453000  0.13640000  0.79779000  1
  Si  Si67  1  0.19547000  0.86360000  0.79779000  1
  Si  Si68  1  0.19547000  0.63640000  0.29779000  1
  Si  Si69  1  0.80453000  0.36360000  0.29779000  1
  Si  Si70  1  0.80453000  0.63640000  0.29779000  1
  Si  Si71  1  0.19547000  0.36360000  0.29779000  1
  Si  Si72  1  0.12295000  0.26494000  0.70006000  1
  Si  Si73  1  0.87705000  0.73506000  0.70006000  1
  Si  Si74  1  0.87705000  0.26494000  0.70006000  1
  Si  Si75  1  0.12295000  0.73506000  0.70006000  1
  Si  Si76  1  0.12295000  0.76494000  0.20006000  1
  Si  Si77  1  0.87705000  0.23506000  0.20006000  1
  Si  Si78  1  0.87705000  0.76494000  0.20006000  1
  Si  Si79  1  0.12295000  0.23506000  0.20006000  1
  Si  Si80  1  0.19764000  0.13707000  0.00060000  1
  Si  Si81  1  0.80236000  0.86293000  0.00060000  1
  Si  Si82  1  0.80236000  0.13707000  0.00060000  1
  Si  Si83  1  0.19764000  0.86293000  0.00060000  1
  Si  Si84  1  0.19764000  0.63707000  0.50060000  1
  Si  Si85  1  0.80236000  0.36293000  0.50060000  1
  Si  Si86  1  0.80236000  0.63707000  0.50060000  1
  Si  Si87  1  0.19764000  0.36293000  0.50060000  1
  Si  Si88  1  0.11961000  0.26052000  0.10436000  1
  Si  Si89  1  0.88039000  0.73948000  0.10436000  1
  Si  Si90  1  0.88039000  0.26052000  0.10436000  1
  Si  Si91  1  0.11961000  0.73948000  0.10436000  1
  Si  Si92  1  0.11961000  0.76052000  0.60436000  1
  Si  Si93  1  0.88039000  0.23948000  0.60436000  1
  Si  Si94  1  0.88039000  0.76052000  0.60436000  1
  Si  Si95  1  0.11961000  0.23948000  0.60436000  1
  Si  Si96  1  0.12221000  0.06862000  0.86091000  1
  Si  Si97  1  0.87779000  0.93138000  0.86091000  1
  Si  Si98  1  0.87779000  0.06862000  0.86091000  1
  Si  Si99  1  0.12221000  0.93138000  0.86091000  1
  Si  Si100  1  0.12221000  0.56862000  0.36091000  1
  Si  Si101  1  0.87779000  0.43138000  0.36091000  1
  Si  Si102  1  0.87779000  0.56862000  0.36091000  1
  Si  Si103  1  0.12221000  0.43138000  0.36091000  1
  Si  Si104  1  0.38016000  0.06827000  0.76241000  1
  Si  Si105  1  0.61984000  0.93173000  0.76241000  1
  Si  Si106  1  0.61984000  0.06827000  0.76241000  1
  Si  Si107  1  0.38016000  0.93173000  0.76241000  1
  Si  Si108  1  0.38016000  0.56827000  0.26241000  1
  Si  Si109  1  0.61984000  0.43173000  0.26241000  1
  Si  Si110  1  0.61984000  0.56827000  0.26241000  1
  Si  Si111  1  0.38016000  0.43173000  0.26241000  1
  Si  Si112  1  0.19531000  0.15260000  0.66077000  1
  Si  Si113  1  0.80469000  0.84740000  0.66077000  1
  Si  Si114  1  0.80469000  0.15260000  0.66077000  1
  Si  Si115  1  0.19531000  0.84740000  0.66077000  1
  Si  Si116  1  0.19531000  0.65260000  0.16077000  1
  Si  Si117  1  0.80469000  0.34740000  0.16077000  1
  Si  Si118  1  0.80469000  0.65260000  0.16077000  1
  Si  Si119  1  0.19531000  0.34740000  0.16077000  1
  Si  Si120  1  0.19086000  0.35282000  0.64129000  1
  Si  Si121  1  0.80914000  0.64718000  0.64129000  1
  Si  Si122  1  0.80914000  0.35282000  0.64129000  1
  Si  Si123  1  0.19086000  0.64718000  0.64129000  1
  Si  Si124  1  0.19086000  0.85282000  0.14129000  1
  Si  Si125  1  0.80914000  0.14718000  0.14129000  1
  Si  Si126  1  0.80914000  0.85282000  0.14129000  1
  Si  Si127  1  0.19086000  0.14718000  0.14129000  1
  Si  Si128  1  0.37886000  0.06903000  0.03879000  1
  Si  Si129  1  0.62114000  0.93097000  0.03879000  1
  Si  Si130  1  0.62114000  0.06903000  0.03879000  1
  Si  Si131  1  0.37886000  0.93097000  0.03879000  1
  Si  Si132  1  0.37886000  0.56903000  0.53879000  1
  Si  Si133  1  0.62114000  0.43097000  0.53879000  1
  Si  Si134  1  0.62114000  0.56903000  0.53879000  1
  Si  Si135  1  0.37886000  0.43097000  0.53879000  1
  Si  Si136  1  0.38016000  0.06883000  0.68099000  1
  Si  Si137  1  0.61984000  0.93117000  0.68099000  1
  Si  Si138  1  0.61984000  0.06883000  0.68099000  1
  Si  Si139  1  0.38016000  0.93117000  0.68099000  1
  Si  Si140  1  0.38016000  0.56883000  0.18099000  1
  Si  Si141  1  0.61984000  0.43117000  0.18099000  1
  Si  Si142  1  0.61984000  0.56883000  0.18099000  1
  Si  Si143  1  0.38016000  0.43117000  0.18099000  1
  Si  Si144  1  0.37926000  0.42986000  0.61861000  1
  Si  Si145  1  0.62074000  0.57014000  0.61861000  1
  Si  Si146  1  0.62074000  0.42986000  0.61861000  1
  Si  Si147  1  0.37926000  0.57014000  0.61861000  1
  Si  Si148  1  0.37926000  0.92986000  0.11861000  1
  Si  Si149  1  0.62074000  0.07014000  0.11861000  1
  Si  Si150  1  0.62074000  0.92986000  0.11861000  1
  Si  Si151  1  0.37926000  0.07014000  0.11861000  1
  Si  Si152  1  0.00000000  0.42746000  0.86681000  1
  Si  Si153  1  0.00000000  0.57254000  0.86681000  1
  Si  Si154  1  0.00000000  0.92746000  0.36681000  1
  Si  Si155  1  0.00000000  0.07254000  0.36681000  1
  Si  Si156  1  0.00000000  0.42757000  0.94192000  1
  Si  Si157  1  0.00000000  0.57243000  0.94192000  1
  Si  Si158  1  0.00000000  0.92757000  0.44192000  1
  Si  Si159  1  0.00000000  0.07243000  0.44192000  1
  Si  Si160  1  0.00000000  0.06933000  0.76258000  1
  Si  Si161  1  0.00000000  0.93067000  0.76258000  1
  Si  Si162  1  0.00000000  0.56933000  0.26258000  1
  Si  Si163  1  0.00000000  0.43067000  0.26258000  1
  Si  Si164  1  0.00000000  0.07307000  0.03564000  1
  Si  Si165  1  0.00000000  0.92693000  0.03564000  1
  Si  Si166  1  0.00000000  0.57307000  0.53564000  1
  Si  Si167  1  0.00000000  0.42693000  0.53564000  1
  Si  Si168  1  0.00000000  0.06931000  0.67963000  1
  Si  Si169  1  0.00000000  0.93069000  0.67963000  1
  Si  Si170  1  0.00000000  0.56931000  0.17963000  1
  Si  Si171  1  0.00000000  0.43069000  0.17963000  1
  Si  Si172  1  0.00000000  0.42694000  0.61374000  1
  Si  Si173  1  0.00000000  0.57306000  0.61374000  1
  Si  Si174  1  0.00000000  0.92694000  0.11374000  1
  Si  Si175  1  0.00000000  0.07306000  0.11374000  1
