# generated using pymatgen
data_O2
_symmetry_space_group_name_H-M   'P 1'
_cell_length_a   10.45783000
_cell_length_b   27.76067000
_cell_length_c   27.20226000
_cell_angle_alpha   90.00000000
_cell_angle_beta   90.00000000
_cell_angle_gamma   90.00000000
_symmetry_Int_Tables_number   1
_chemical_formula_structural   O2
_chemical_formula_sum   O256
_cell_volume   7897.26131224
_cell_formula_units_Z   128
loop_
 _symmetry_equiv_pos_site_id
 _symmetry_equiv_pos_as_xyz
  1  'x, y, z'
loop_
 _atom_site_type_symbol
 _atom_site_label
 _atom_site_symmetry_multiplicity
 _atom_site_fract_x
 _atom_site_fract_y
 _atom_site_fract_z
 _atom_site_occupancy
  O  O0  1  0.12625000  0.25065000  0.09415000  1
  O  O1  1  0.12625000  0.74935000  0.90585000  1
  O  O2  1  0.12625000  0.25065000  0.40585000  1
  O  O3  1  0.12625000  0.74935000  0.59415000  1
  O  O4  1  0.87375000  0.74935000  0.90585000  1
  O  O5  1  0.87375000  0.25065000  0.09415000  1
  O  O6  1  0.87375000  0.74935000  0.59415000  1
  O  O7  1  0.87375000  0.25065000  0.40585000  1
  O  O8  1  0.62625000  0.75065000  0.09415000  1
  O  O9  1  0.62625000  0.24935000  0.90585000  1
  O  O10  1  0.62625000  0.75065000  0.40585000  1
  O  O11  1  0.62625000  0.24935000  0.59415000  1
  O  O12  1  0.37375000  0.24935000  0.90585000  1
  O  O13  1  0.37375000  0.75065000  0.09415000  1
  O  O14  1  0.37375000  0.24935000  0.59415000  1
  O  O15  1  0.37375000  0.75065000  0.40585000  1
  O  O16  1  0.23378000  0.16687000  0.08547000  1
  O  O17  1  0.23378000  0.83313000  0.91453000  1
  O  O18  1  0.23378000  0.16687000  0.41453000  1
  O  O19  1  0.23378000  0.83313000  0.58547000  1
  O  O20  1  0.76622000  0.83313000  0.91453000  1
  O  O21  1  0.76622000  0.16687000  0.08547000  1
  O  O22  1  0.76622000  0.83313000  0.58547000  1
  O  O23  1  0.76622000  0.16687000  0.41453000  1
  O  O24  1  0.73378000  0.66687000  0.08547000  1
  O  O25  1  0.73378000  0.33313000  0.91453000  1
  O  O26  1  0.73378000  0.66687000  0.41453000  1
  O  O27  1  0.73378000  0.33313000  0.58547000  1
  O  O28  1  0.26622000  0.33313000  0.91453000  1
  O  O29  1  0.26622000  0.66687000  0.08547000  1
  O  O30  1  0.26622000  0.33313000  0.58547000  1
  O  O31  1  0.26622000  0.66687000  0.41453000  1
  O  O32  1  0.37415000  0.24609000  0.07273000  1
  O  O33  1  0.37415000  0.75391000  0.92727000  1
  O  O34  1  0.37415000  0.24609000  0.42727000  1
  O  O35  1  0.37415000  0.75391000  0.57273000  1
  O  O36  1  0.62585000  0.75391000  0.92727000  1
  O  O37  1  0.62585000  0.24609000  0.07273000  1
  O  O38  1  0.62585000  0.75391000  0.57273000  1
  O  O39  1  0.62585000  0.24609000  0.42727000  1
  O  O40  1  0.87415000  0.74609000  0.07273000  1
  O  O41  1  0.87415000  0.25391000  0.92727000  1
  O  O42  1  0.87415000  0.74609000  0.42727000  1
  O  O43  1  0.87415000  0.25391000  0.57273000  1
  O  O44  1  0.12585000  0.25391000  0.92727000  1
  O  O45  1  0.12585000  0.74609000  0.07273000  1
  O  O46  1  0.12585000  0.25391000  0.57273000  1
  O  O47  1  0.12585000  0.74609000  0.42727000  1
  O  O48  1  0.28900000  0.21969000  0.16026000  1
  O  O49  1  0.28900000  0.78031000  0.83974000  1
  O  O50  1  0.28900000  0.21969000  0.33974000  1
  O  O51  1  0.28900000  0.78031000  0.66026000  1
  O  O52  1  0.71100000  0.78031000  0.83974000  1
  O  O53  1  0.71100000  0.21969000  0.16026000  1
  O  O54  1  0.71100000  0.78031000  0.66026000  1
  O  O55  1  0.71100000  0.21969000  0.33974000  1
  O  O56  1  0.78900000  0.71969000  0.16026000  1
  O  O57  1  0.78900000  0.28031000  0.83974000  1
  O  O58  1  0.78900000  0.71969000  0.33974000  1
  O  O59  1  0.78900000  0.28031000  0.66026000  1
  O  O60  1  0.21100000  0.28031000  0.83974000  1
  O  O61  1  0.21100000  0.71969000  0.16026000  1
  O  O62  1  0.21100000  0.28031000  0.66026000  1
  O  O63  1  0.21100000  0.71969000  0.33974000  1
  O  O64  1  0.37444000  0.99011000  0.08437000  1
  O  O65  1  0.37444000  0.00989000  0.91563000  1
  O  O66  1  0.37444000  0.99011000  0.41563000  1
  O  O67  1  0.37444000  0.00989000  0.58437000  1
  O  O68  1  0.62556000  0.00989000  0.91563000  1
  O  O69  1  0.62556000  0.99011000  0.08437000  1
  O  O70  1  0.62556000  0.00989000  0.58437000  1
  O  O71  1  0.62556000  0.99011000  0.41563000  1
  O  O72  1  0.87444000  0.49011000  0.08437000  1
  O  O73  1  0.87444000  0.50989000  0.91563000  1
  O  O74  1  0.87444000  0.49011000  0.41563000  1
  O  O75  1  0.87444000  0.50989000  0.58437000  1
  O  O76  1  0.12556000  0.50989000  0.91563000  1
  O  O77  1  0.12556000  0.49011000  0.08437000  1
  O  O78  1  0.12556000  0.50989000  0.58437000  1
  O  O79  1  0.12556000  0.49011000  0.41563000  1
  O  O80  1  0.27519000  0.07463000  0.07049000  1
  O  O81  1  0.27519000  0.92537000  0.92951000  1
  O  O82  1  0.27519000  0.07463000  0.42951000  1
  O  O83  1  0.27519000  0.92537000  0.57049000  1
  O  O84  1  0.72481000  0.92537000  0.92951000  1
  O  O85  1  0.72481000  0.07463000  0.07049000  1
  O  O86  1  0.72481000  0.92537000  0.57049000  1
  O  O87  1  0.72481000  0.07463000  0.42951000  1
  O  O88  1  0.77519000  0.57463000  0.07049000  1
  O  O89  1  0.77519000  0.42537000  0.92951000  1
  O  O90  1  0.77519000  0.57463000  0.42951000  1
  O  O91  1  0.77519000  0.42537000  0.57049000  1
  O  O92  1  0.22481000  0.42537000  0.92951000  1
  O  O93  1  0.22481000  0.57463000  0.07049000  1
  O  O94  1  0.22481000  0.42537000  0.57049000  1
  O  O95  1  0.22481000  0.57463000  0.42951000  1
  O  O96  1  0.12474000  0.00032000  0.08474000  1
  O  O97  1  0.12474000  0.99968000  0.91526000  1
  O  O98  1  0.12474000  0.00032000  0.41526000  1
  O  O99  1  0.12474000  0.99968000  0.58474000  1
  O  O100  1  0.87526000  0.99968000  0.91526000  1
  O  O101  1  0.87526000  0.00032000  0.08474000  1
  O  O102  1  0.87526000  0.99968000  0.58474000  1
  O  O103  1  0.87526000  0.00032000  0.41526000  1
  O  O104  1  0.62474000  0.50032000  0.08474000  1
  O  O105  1  0.62474000  0.49968000  0.91526000  1
  O  O106  1  0.62474000  0.50032000  0.41526000  1
  O  O107  1  0.62474000  0.49968000  0.58474000  1
  O  O108  1  0.37526000  0.49968000  0.91526000  1
  O  O109  1  0.37526000  0.50032000  0.08474000  1
  O  O110  1  0.37526000  0.49968000  0.58474000  1
  O  O111  1  0.37526000  0.50032000  0.41526000  1
  O  O112  1  0.26726000  0.03607000  0.15810000  1
  O  O113  1  0.26726000  0.96393000  0.84190000  1
  O  O114  1  0.26726000  0.03607000  0.34190000  1
  O  O115  1  0.26726000  0.96393000  0.65810000  1
  O  O116  1  0.73274000  0.96393000  0.84190000  1
  O  O117  1  0.73274000  0.03607000  0.15810000  1
  O  O118  1  0.73274000  0.96393000  0.65810000  1
  O  O119  1  0.73274000  0.03607000  0.34190000  1
  O  O120  1  0.76726000  0.53607000  0.15810000  1
  O  O121  1  0.76726000  0.46393000  0.84190000  1
  O  O122  1  0.76726000  0.53607000  0.34190000  1
  O  O123  1  0.76726000  0.46393000  0.65810000  1
  O  O124  1  0.23274000  0.46393000  0.84190000  1
  O  O125  1  0.23274000  0.53607000  0.15810000  1
  O  O126  1  0.23274000  0.46393000  0.65810000  1
  O  O127  1  0.23274000  0.53607000  0.34190000  1
  O  O128  1  0.12552000  0.12320000  0.01052000  1
  O  O129  1  0.12552000  0.87680000  0.98948000  1
  O  O130  1  0.12552000  0.12320000  0.48948000  1
  O  O131  1  0.12552000  0.87680000  0.51052000  1
  O  O132  1  0.87448000  0.87680000  0.98948000  1
  O  O133  1  0.87448000  0.12320000  0.01052000  1
  O  O134  1  0.87448000  0.87680000  0.51052000  1
  O  O135  1  0.87448000  0.12320000  0.48948000  1
  O  O136  1  0.62552000  0.62320000  0.01052000  1
  O  O137  1  0.62552000  0.37680000  0.98948000  1
  O  O138  1  0.62552000  0.62320000  0.48948000  1
  O  O139  1  0.62552000  0.37680000  0.51052000  1
  O  O140  1  0.37448000  0.37680000  0.98948000  1
  O  O141  1  0.37448000  0.62320000  0.01052000  1
  O  O142  1  0.37448000  0.37680000  0.51052000  1
  O  O143  1  0.37448000  0.62320000  0.48948000  1
  O  O144  1  0.37391000  0.13958000  0.01168000  1
  O  O145  1  0.37391000  0.86042000  0.98832000  1
  O  O146  1  0.37391000  0.13958000  0.48832000  1
  O  O147  1  0.37391000  0.86042000  0.51168000  1
  O  O148  1  0.62609000  0.86042000  0.98832000  1
  O  O149  1  0.62609000  0.13958000  0.01168000  1
  O  O150  1  0.62609000  0.86042000  0.51168000  1
  O  O151  1  0.62609000  0.13958000  0.48832000  1
  O  O152  1  0.87391000  0.63958000  0.01168000  1
  O  O153  1  0.87391000  0.36042000  0.98832000  1
  O  O154  1  0.87391000  0.63958000  0.48832000  1
  O  O155  1  0.87391000  0.36042000  0.51168000  1
  O  O156  1  0.12609000  0.36042000  0.98832000  1
  O  O157  1  0.12609000  0.63958000  0.01168000  1
  O  O158  1  0.12609000  0.36042000  0.51168000  1
  O  O159  1  0.12609000  0.63958000  0.48832000  1
  O  O160  1  0.32912000  0.12562000  0.17655000  1
  O  O161  1  0.32912000  0.87438000  0.82345000  1
  O  O162  1  0.32912000  0.12562000  0.32345000  1
  O  O163  1  0.32912000  0.87438000  0.67655000  1
  O  O164  1  0.67088000  0.87438000  0.82345000  1
  O  O165  1  0.67088000  0.12562000  0.17655000  1
  O  O166  1  0.67088000  0.87438000  0.67655000  1
  O  O167  1  0.67088000  0.12562000  0.32345000  1
  O  O168  1  0.82912000  0.62562000  0.17655000  1
  O  O169  1  0.82912000  0.37438000  0.82345000  1
  O  O170  1  0.82912000  0.62562000  0.32345000  1
  O  O171  1  0.82912000  0.37438000  0.67655000  1
  O  O172  1  0.17088000  0.37438000  0.82345000  1
  O  O173  1  0.17088000  0.62562000  0.17655000  1
  O  O174  1  0.17088000  0.37438000  0.67655000  1
  O  O175  1  0.17088000  0.62562000  0.32345000  1
  O  O176  1  0.28592000  0.18442000  0.25000000  1
  O  O177  1  0.28592000  0.81558000  0.75000000  1
  O  O178  1  0.71408000  0.81558000  0.75000000  1
  O  O179  1  0.71408000  0.18442000  0.25000000  1
  O  O180  1  0.78592000  0.68442000  0.25000000  1
  O  O181  1  0.78592000  0.31558000  0.75000000  1
  O  O182  1  0.21408000  0.31558000  0.75000000  1
  O  O183  1  0.21408000  0.68442000  0.25000000  1
  O  O184  1  0.50000000  0.19073000  0.20167000  1
  O  O185  1  0.50000000  0.80927000  0.79833000  1
  O  O186  1  0.50000000  0.19073000  0.29833000  1
  O  O187  1  0.50000000  0.80927000  0.70167000  1
  O  O188  1  0.00000000  0.69073000  0.20167000  1
  O  O189  1  0.00000000  0.30927000  0.79833000  1
  O  O190  1  0.00000000  0.69073000  0.29833000  1
  O  O191  1  0.00000000  0.30927000  0.70167000  1
  O  O192  1  0.50000000  0.05713000  0.18738000  1
  O  O193  1  0.50000000  0.94287000  0.81262000  1
  O  O194  1  0.50000000  0.05713000  0.31262000  1
  O  O195  1  0.50000000  0.94287000  0.68738000  1
  O  O196  1  0.00000000  0.55713000  0.18738000  1
  O  O197  1  0.00000000  0.44287000  0.81262000  1
  O  O198  1  0.00000000  0.55713000  0.31262000  1
  O  O199  1  0.00000000  0.44287000  0.68738000  1
  O  O200  1  0.30977000  0.06407000  0.25000000  1
  O  O201  1  0.30977000  0.93593000  0.75000000  1
  O  O202  1  0.69023000  0.93593000  0.75000000  1
  O  O203  1  0.69023000  0.06407000  0.25000000  1
  O  O204  1  0.80977000  0.56407000  0.25000000  1
  O  O205  1  0.80977000  0.43593000  0.75000000  1
  O  O206  1  0.19023000  0.43593000  0.75000000  1
  O  O207  1  0.19023000  0.56407000  0.25000000  1
  O  O208  1  0.00000000  0.32397000  0.06179000  1
  O  O209  1  0.00000000  0.67603000  0.93821000  1
  O  O210  1  0.00000000  0.32397000  0.43821000  1
  O  O211  1  0.00000000  0.67603000  0.56179000  1
  O  O212  1  0.50000000  0.82397000  0.06179000  1
  O  O213  1  0.50000000  0.17603000  0.93821000  1
  O  O214  1  0.50000000  0.82397000  0.43821000  1
  O  O215  1  0.50000000  0.17603000  0.56179000  1
  O  O216  1  0.00000000  0.24324000  0.00989000  1
  O  O217  1  0.00000000  0.75676000  0.99011000  1
  O  O218  1  0.00000000  0.24324000  0.49011000  1
  O  O219  1  0.00000000  0.75676000  0.50989000  1
  O  O220  1  0.50000000  0.74324000  0.00989000  1
  O  O221  1  0.50000000  0.25676000  0.99011000  1
  O  O222  1  0.50000000  0.74324000  0.49011000  1
  O  O223  1  0.50000000  0.25676000  0.50989000  1
  O  O224  1  0.00000000  0.41784000  0.04865000  1
  O  O225  1  0.00000000  0.58216000  0.95135000  1
  O  O226  1  0.00000000  0.41784000  0.45135000  1
  O  O227  1  0.00000000  0.58216000  0.54865000  1
  O  O228  1  0.50000000  0.91784000  0.04865000  1
  O  O229  1  0.50000000  0.08216000  0.95135000  1
  O  O230  1  0.50000000  0.91784000  0.45135000  1
  O  O231  1  0.50000000  0.08216000  0.54865000  1
  O  O232  1  0.00000000  0.50000000  0.00000000  1
  O  O233  1  0.00000000  0.50000000  0.50000000  1
  O  O234  1  0.50000000  0.00000000  0.00000000  1
  O  O235  1  0.50000000  0.00000000  0.50000000  1
  O  O236  1  0.00000000  0.07679000  0.55749000  1
  O  O237  1  0.00000000  0.92321000  0.44251000  1
  O  O238  1  0.00000000  0.07679000  0.94251000  1
  O  O239  1  0.00000000  0.92321000  0.05749000  1
  O  O240  1  0.50000000  0.57679000  0.55749000  1
  O  O241  1  0.50000000  0.42321000  0.44251000  1
  O  O242  1  0.50000000  0.57679000  0.94251000  1
  O  O243  1  0.50000000  0.42321000  0.05749000  1
  O  O244  1  0.00000000  0.00000000  0.50000000  1
  O  O245  1  0.00000000  0.00000000  0.00000000  1
  O  O246  1  0.50000000  0.50000000  0.50000000  1
  O  O247  1  0.50000000  0.50000000  0.00000000  1
  O  O248  1  0.00000000  0.17333000  0.55528000  1
  O  O249  1  0.00000000  0.82667000  0.44472000  1
  O  O250  1  0.00000000  0.17333000  0.94472000  1
  O  O251  1  0.00000000  0.82667000  0.05528000  1
  O  O252  1  0.50000000  0.67333000  0.55528000  1
  O  O253  1  0.50000000  0.32667000  0.44472000  1
  O  O254  1  0.50000000  0.67333000  0.94472000  1
  O  O255  1  0.50000000  0.32667000  0.05528000  1
