# generated using pymatgen
data_Si
_symmetry_space_group_name_H-M   'P 1'
_cell_length_a   10.45783000
_cell_length_b   27.76067000
_cell_length_c   27.20226000
_cell_angle_alpha   90.00000000
_cell_angle_beta   90.00000000
_cell_angle_gamma   90.00000000
_symmetry_Int_Tables_number   1
_chemical_formula_structural   Si
_chemical_formula_sum   Si128
_cell_volume   7897.26131224
_cell_formula_units_Z   128
loop_
 _symmetry_equiv_pos_site_id
 _symmetry_equiv_pos_as_xyz
  1  'x, y, z'
loop_
 _atom_site_type_symbol
 _atom_site_label
 _atom_site_symmetry_multiplicity
 _atom_site_fract_x
 _atom_site_fract_y
 _atom_site_fract_z
 _atom_site_occupancy
  Si  Si0  1  0.25782000  0.22171000  0.10230000  1
  Si  Si1  1  0.25782000  0.77829000  0.89770000  1
  Si  Si2  1  0.25782000  0.22171000  0.39770000  1
  Si  Si3  1  0.25782000  0.77829000  0.60230000  1
  Si  Si4  1  0.74218000  0.77829000  0.89770000  1
  Si  Si5  1  0.74218000  0.22171000  0.10230000  1
  Si  Si6  1  0.74218000  0.77829000  0.60230000  1
  Si  Si7  1  0.74218000  0.22171000  0.39770000  1
  Si  Si8  1  0.75782000  0.72171000  0.10230000  1
  Si  Si9  1  0.75782000  0.27829000  0.89770000  1
  Si  Si10  1  0.75782000  0.72171000  0.39770000  1
  Si  Si11  1  0.75782000  0.27829000  0.60230000  1
  Si  Si12  1  0.24218000  0.27829000  0.89770000  1
  Si  Si13  1  0.24218000  0.72171000  0.10230000  1
  Si  Si14  1  0.24218000  0.27829000  0.60230000  1
  Si  Si15  1  0.24218000  0.72171000  0.39770000  1
  Si  Si16  1  0.25822000  0.02487000  0.10008000  1
  Si  Si17  1  0.25822000  0.97513000  0.89992000  1
  Si  Si18  1  0.25822000  0.02487000  0.39992000  1
  Si  Si19  1  0.25822000  0.97513000  0.60008000  1
  Si  Si20  1  0.74178000  0.97513000  0.89992000  1
  Si  Si21  1  0.74178000  0.02487000  0.10008000  1
  Si  Si22  1  0.74178000  0.97513000  0.60008000  1
  Si  Si23  1  0.74178000  0.02487000  0.39992000  1
  Si  Si24  1  0.75822000  0.52487000  0.10008000  1
  Si  Si25  1  0.75822000  0.47513000  0.89992000  1
  Si  Si26  1  0.75822000  0.52487000  0.39992000  1
  Si  Si27  1  0.75822000  0.47513000  0.60008000  1
  Si  Si28  1  0.24178000  0.47513000  0.89992000  1
  Si  Si29  1  0.24178000  0.52487000  0.10008000  1
  Si  Si30  1  0.24178000  0.47513000  0.60008000  1
  Si  Si31  1  0.24178000  0.52487000  0.39992000  1
  Si  Si32  1  0.25124000  0.12576000  0.04436000  1
  Si  Si33  1  0.25124000  0.87424000  0.95564000  1
  Si  Si34  1  0.25124000  0.12576000  0.45564000  1
  Si  Si35  1  0.25124000  0.87424000  0.54436000  1
  Si  Si36  1  0.74876000  0.87424000  0.95564000  1
  Si  Si37  1  0.74876000  0.12576000  0.04436000  1
  Si  Si38  1  0.74876000  0.87424000  0.54436000  1
  Si  Si39  1  0.74876000  0.12576000  0.45564000  1
  Si  Si40  1  0.75124000  0.62576000  0.04436000  1
  Si  Si41  1  0.75124000  0.37424000  0.95564000  1
  Si  Si42  1  0.75124000  0.62576000  0.45564000  1
  Si  Si43  1  0.75124000  0.37424000  0.54436000  1
  Si  Si44  1  0.24876000  0.37424000  0.95564000  1
  Si  Si45  1  0.24876000  0.62576000  0.04436000  1
  Si  Si46  1  0.24876000  0.37424000  0.54436000  1
  Si  Si47  1  0.24876000  0.62576000  0.45564000  1
  Si  Si48  1  0.34967000  0.17974000  0.19624000  1
  Si  Si49  1  0.34967000  0.82026000  0.80376000  1
  Si  Si50  1  0.34967000  0.17974000  0.30376000  1
  Si  Si51  1  0.34967000  0.82026000  0.69624000  1
  Si  Si52  1  0.65033000  0.82026000  0.80376000  1
  Si  Si53  1  0.65033000  0.17974000  0.19624000  1
  Si  Si54  1  0.65033000  0.82026000  0.69624000  1
  Si  Si55  1  0.65033000  0.17974000  0.30376000  1
  Si  Si56  1  0.84967000  0.67974000  0.19624000  1
  Si  Si57  1  0.84967000  0.32026000  0.80376000  1
  Si  Si58  1  0.84967000  0.67974000  0.30376000  1
  Si  Si59  1  0.84967000  0.32026000  0.69624000  1
  Si  Si60  1  0.15033000  0.32026000  0.80376000  1
  Si  Si61  1  0.15033000  0.67974000  0.19624000  1
  Si  Si62  1  0.15033000  0.32026000  0.69624000  1
  Si  Si63  1  0.15033000  0.67974000  0.30376000  1
  Si  Si64  1  0.35099000  0.07054000  0.19332000  1
  Si  Si65  1  0.35099000  0.92946000  0.80668000  1
  Si  Si66  1  0.35099000  0.07054000  0.30668000  1
  Si  Si67  1  0.35099000  0.92946000  0.69332000  1
  Si  Si68  1  0.64901000  0.92946000  0.80668000  1
  Si  Si69  1  0.64901000  0.07054000  0.19332000  1
  Si  Si70  1  0.64901000  0.92946000  0.69332000  1
  Si  Si71  1  0.64901000  0.07054000  0.30668000  1
  Si  Si72  1  0.85099000  0.57054000  0.19332000  1
  Si  Si73  1  0.85099000  0.42946000  0.80668000  1
  Si  Si74  1  0.85099000  0.57054000  0.30668000  1
  Si  Si75  1  0.85099000  0.42946000  0.69332000  1
  Si  Si76  1  0.14901000  0.42946000  0.80668000  1
  Si  Si77  1  0.14901000  0.57054000  0.19332000  1
  Si  Si78  1  0.14901000  0.42946000  0.69332000  1
  Si  Si79  1  0.14901000  0.57054000  0.30668000  1
  Si  Si80  1  0.00000000  0.26601000  0.06424000  1
  Si  Si81  1  0.00000000  0.73399000  0.93576000  1
  Si  Si82  1  0.00000000  0.26601000  0.43576000  1
  Si  Si83  1  0.00000000  0.73399000  0.56424000  1
  Si  Si84  1  0.50000000  0.76601000  0.06424000  1
  Si  Si85  1  0.50000000  0.23399000  0.93576000  1
  Si  Si86  1  0.50000000  0.76601000  0.43576000  1
  Si  Si87  1  0.50000000  0.23399000  0.56424000  1
  Si  Si88  1  0.00000000  0.47560000  0.05353000  1
  Si  Si89  1  0.00000000  0.52440000  0.94647000  1
  Si  Si90  1  0.00000000  0.47560000  0.44647000  1
  Si  Si91  1  0.00000000  0.52440000  0.55353000  1
  Si  Si92  1  0.50000000  0.97560000  0.05353000  1
  Si  Si93  1  0.50000000  0.02440000  0.94647000  1
  Si  Si94  1  0.50000000  0.97560000  0.44647000  1
  Si  Si95  1  0.50000000  0.02440000  0.55353000  1
  Si  Si96  1  0.00000000  0.01875000  0.55592000  1
  Si  Si97  1  0.00000000  0.98125000  0.44408000  1
  Si  Si98  1  0.00000000  0.01875000  0.94408000  1
  Si  Si99  1  0.00000000  0.98125000  0.05592000  1
  Si  Si100  1  0.50000000  0.51875000  0.55592000  1
  Si  Si101  1  0.50000000  0.48125000  0.44408000  1
  Si  Si102  1  0.50000000  0.51875000  0.94408000  1
  Si  Si103  1  0.50000000  0.48125000  0.05592000  1
  Si  Si104  1  0.00000000  0.23095000  0.54794000  1
  Si  Si105  1  0.00000000  0.76905000  0.45206000  1
  Si  Si106  1  0.00000000  0.23095000  0.95206000  1
  Si  Si107  1  0.00000000  0.76905000  0.04794000  1
  Si  Si108  1  0.50000000  0.73095000  0.54794000  1
  Si  Si109  1  0.50000000  0.26905000  0.45206000  1
  Si  Si110  1  0.50000000  0.73095000  0.95206000  1
  Si  Si111  1  0.50000000  0.26905000  0.04794000  1
  Si  Si112  1  0.00000000  0.36642000  0.02148000  1
  Si  Si113  1  0.00000000  0.63358000  0.97852000  1
  Si  Si114  1  0.00000000  0.36642000  0.47852000  1
  Si  Si115  1  0.00000000  0.63358000  0.52148000  1
  Si  Si116  1  0.50000000  0.86642000  0.02148000  1
  Si  Si117  1  0.50000000  0.13358000  0.97852000  1
  Si  Si118  1  0.50000000  0.86642000  0.47852000  1
  Si  Si119  1  0.50000000  0.13358000  0.52148000  1
  Si  Si120  1  0.00000000  0.12433000  0.52360000  1
  Si  Si121  1  0.00000000  0.87567000  0.47640000  1
  Si  Si122  1  0.00000000  0.12433000  0.97640000  1
  Si  Si123  1  0.00000000  0.87567000  0.02360000  1
  Si  Si124  1  0.50000000  0.62433000  0.52360000  1
  Si  Si125  1  0.50000000  0.37567000  0.47640000  1
  Si  Si126  1  0.50000000  0.62433000  0.97640000  1
  Si  Si127  1  0.50000000  0.37567000  0.02360000  1
