# generated using pymatgen
data_SiO4
_symmetry_space_group_name_H-M   'P 1'
_cell_length_a   10.45783000
_cell_length_b   27.76067000
_cell_length_c   27.20226000
_cell_angle_alpha   90.00000000
_cell_angle_beta   90.00000000
_cell_angle_gamma   90.00000000
_symmetry_Int_Tables_number   1
_chemical_formula_structural   SiO4
_chemical_formula_sum   'Si1 O4'
_cell_volume   7897.26131224
_cell_formula_units_Z   1
loop_
 _symmetry_equiv_pos_site_id
 _symmetry_equiv_pos_as_xyz
  1  'x, y, z'
loop_
 _atom_site_type_symbol
 _atom_site_label
 _atom_site_symmetry_multiplicity
 _atom_site_fract_x
 _atom_site_fract_y
 _atom_site_fract_z
 _atom_site_occupancy
  Si  Si0  1  0.84967000  0.32026000  0.69624000  1
  O  O1  1  0.78900000  0.28031000  0.66026000  1
  O  O2  1  0.82912000  0.37438000  0.67655000  1
  O  O3  1  0.78592000  0.31558000  0.75000000  1
  O  O4  1  1.00000000  0.30927000  0.70167000  1
