# generated using pymatgen
data_O2
_symmetry_space_group_name_H-M   'P 1'
_cell_length_a   24.20050000
_cell_length_b   12.53990000
_cell_length_c   14.25020000
_cell_angle_alpha   72.59900000
_cell_angle_beta   123.12800000
_cell_angle_gamma   90.00000000
_symmetry_Int_Tables_number   1
_chemical_formula_structural   O2
_chemical_formula_sum   O109
_cell_volume   3382.79804958
_cell_formula_units_Z   54
loop_
 _symmetry_equiv_pos_site_id
 _symmetry_equiv_pos_as_xyz
  1  'x, y, z'
loop_
 _atom_site_type_symbol
 _atom_site_label
 _atom_site_symmetry_multiplicity
 _atom_site_fract_x
 _atom_site_fract_y
 _atom_site_fract_z
 _atom_site_occupancy
  O  O0  1  0.07263000  0.35707000  0.92175000  1
  O  O1  1  0.92737000  0.64293000  0.07825000  1
  O  O2  1  0.07250000  0.57489000  0.83972000  1
  O  O3  1  0.92750000  0.42511000  0.16028000  1
  O  O4  1  0.00058000  0.77428000  0.67210000  1
  O  O5  1  0.99942000  0.22572000  0.32790000  1
  O  O6  1  0.08608000  0.75961000  0.89576000  1
  O  O7  1  0.91392000  0.24039000  0.10424000  1
  O  O8  1  0.08104000  0.97465000  0.87782000  1
  O  O9  1  0.91896000  0.02535000  0.12218000  1
  O  O10  1  0.13104000  0.72591000  0.77318000  1
  O  O11  1  0.86896000  0.27409000  0.22682000  1
  O  O12  1  0.17104000  0.92004000  0.74264000  1
  O  O13  1  0.82896000  0.07996000  0.25736000  1
  O  O14  1  0.22511000  0.74569000  0.73294000  1
  O  O15  1  0.77489000  0.25431000  0.26706000  1
  O  O16  1  0.09939000  0.85190000  0.55992000  1
  O  O17  1  0.90061000  0.14810000  0.44008000  1
  O  O18  1  0.00434000  0.87057000  0.33859000  1
  O  O19  1  0.99566000  0.12943000  0.66141000  1
  O  O20  1  0.13213000  0.83719000  0.41563000  1
  O  O21  1  0.86787000  0.16281000  0.58437000  1
  O  O22  1  0.16005000  0.75958000  0.29081000  1
  O  O23  1  0.83995000  0.24042000  0.70919000  1
  O  O24  1  0.08502000  0.82171000  0.05585000  1
  O  O25  1  0.91498000  0.17829000  0.94415000  1
  O  O26  1  0.03519000  0.73136000  0.17922000  1
  O  O27  1  0.96481000  0.26864000  0.82078000  1
  O  O28  1  0.12528000  0.60347000  0.18977000  1
  O  O29  1  0.87472000  0.39653000  0.81023000  1
  O  O30  1  0.13276000  0.97973000  0.23891000  1
  O  O31  1  0.86724000  0.02027000  0.76109000  1
  O  O32  1  0.07184000  0.14826000  0.03337000  1
  O  O33  1  0.92816000  0.85174000  0.96663000  1
  O  O34  1  0.02374000  0.11752000  0.16456000  1
  O  O35  1  0.97626000  0.88248000  0.83544000  1
  O  O36  1  0.13671000  0.19115000  0.23369000  1
  O  O37  1  0.86329000  0.80885000  0.76631000  1
  O  O38  1  0.24679000  0.85725000  0.43681000  1
  O  O39  1  0.75321000  0.14275000  0.56319000  1
  O  O40  1  0.31033000  0.97727000  0.57537000  1
  O  O41  1  0.68967000  0.02273000  0.42463000  1
  O  O42  1  0.37877000  0.81206000  0.57793000  1
  O  O43  1  0.62123000  0.18794000  0.42207000  1
  O  O44  1  0.30901000  0.76198000  0.66915000  1
  O  O45  1  0.69099000  0.23802000  0.33085000  1
  O  O46  1  0.34995000  0.76744000  0.87998000  1
  O  O47  1  0.65005000  0.23256000  0.12002000  1
  O  O48  1  0.32681000  0.57668000  0.83769000  1
  O  O49  1  0.67319000  0.42332000  0.16231000  1
  O  O50  1  0.37424000  0.35587000  0.92370000  1
  O  O51  1  0.62576000  0.64413000  0.07630000  1
  O  O52  1  0.43700000  0.50174000  0.86299000  1
  O  O53  1  0.56300000  0.49826000  0.13701000  1
  O  O54  1  0.50488000  0.39341000  0.81252000  1
  O  O55  1  0.49512000  0.60659000  0.18748000  1
  O  O56  1  0.56233000  0.51857000  0.94629000  1
  O  O57  1  0.43767000  0.48143000  0.05371000  1
  O  O58  1  0.46746000  0.61737000  0.71605000  1
  O  O59  1  0.53254000  0.38263000  0.28395000  1
  O  O60  1  0.49311000  0.79797000  0.77808000  1
  O  O61  1  0.50689000  0.20203000  0.22192000  1
  O  O62  1  0.55586000  0.85508000  0.96913000  1
  O  O63  1  0.44414000  0.14492000  0.03087000  1
  O  O64  1  0.42348000  0.89731000  0.83151000  1
  O  O65  1  0.57652000  0.10269000  0.16849000  1
  O  O66  1  0.34179000  0.97775000  0.87295000  1
  O  O67  1  0.65821000  0.02225000  0.12705000  1
  O  O68  1  0.49145000  0.79108000  0.59376000  1
  O  O69  1  0.50855000  0.20892000  0.40624000  1
  O  O70  1  0.39606000  0.91647000  0.37090000  1
  O  O71  1  0.60394000  0.08353000  0.62910000  1
  O  O72  1  0.50000000  0.00000000  0.50000000  1
  O  O73  1  0.48478000  0.16087000  0.57224000  1
  O  O74  1  0.51522000  0.83913000  0.42776000  1
  O  O75  1  0.37646000  0.14476000  0.57126000  1
  O  O76  1  0.62354000  0.85524000  0.42874000  1
  O  O77  1  0.49196000  0.01363000  0.75649000  1
  O  O78  1  0.50804000  0.98637000  0.24351000  1
  O  O79  1  0.47231000  0.23381000  0.71548000  1
  O  O80  1  0.52769000  0.76619000  0.28452000  1
  O  O81  1  0.54809000  0.17610000  0.95049000  1
  O  O82  1  0.45191000  0.82390000  0.04951000  1
  O  O83  1  0.41965000  0.27200000  0.82398000  1
  O  O84  1  0.58035000  0.72800000  0.17602000  1
  O  O85  1  0.32160000  0.19659000  0.83529000  1
  O  O86  1  0.67840000  0.80341000  0.16471000  1
  O  O87  1  0.21912000  0.10632000  0.71656000  1
  O  O88  1  0.78088000  0.89368000  0.28344000  1
  O  O89  1  0.31008000  0.12923000  0.66896000  1
  O  O90  1  0.68992000  0.87077000  0.33104000  1
  O  O91  1  0.24474000  0.18938000  0.43561000  1
  O  O92  1  0.75526000  0.81062000  0.56439000  1
  O  O93  1  0.15436000  0.37958000  0.28127000  1
  O  O94  1  0.84564000  0.62042000  0.71873000  1
  O  O95  1  0.02837000  0.48757000  0.15061000  1
  O  O96  1  0.97163000  0.51243000  0.84939000  1
  O  O97  1  0.09140000  0.48486000  0.04877000  1
  O  O98  1  0.90860000  0.51514000  0.95123000  1
  O  O99  1  0.12655000  0.21322000  0.40253000  1
  O  O100  1  0.87345000  0.78678000  0.59747000  1
  O  O101  1  0.07155000  0.03412000  0.37835000  1
  O  O102  1  0.92845000  0.96588000  0.62165000  1
  O  O103  1  0.09499000  0.10387000  0.55069000  1
  O  O104  1  0.90501000  0.89613000  0.44931000  1
  O  O105  1  0.12619000  0.09926000  0.75981000  1
  O  O106  1  0.87381000  0.90074000  0.24019000  1
  O  O107  1  0.07463000  0.19310000  0.84397000  1
  O  O108  1  0.92537000  0.80690000  0.15603000  1
