# generated using pymatgen
data_Si
_symmetry_space_group_name_H-M   'P 1'
_cell_length_a   24.20050000
_cell_length_b   12.53990000
_cell_length_c   14.25020000
_cell_angle_alpha   72.59900000
_cell_angle_beta   123.12800000
_cell_angle_gamma   90.00000000
_symmetry_Int_Tables_number   1
_chemical_formula_structural   Si
_chemical_formula_sum   Si54
_cell_volume   3382.79804958
_cell_formula_units_Z   54
loop_
 _symmetry_equiv_pos_site_id
 _symmetry_equiv_pos_as_xyz
  1  'x, y, z'
loop_
 _atom_site_type_symbol
 _atom_site_label
 _atom_site_symmetry_multiplicity
 _atom_site_fract_x
 _atom_site_fract_y
 _atom_site_fract_z
 _atom_site_occupancy
  Si  Si0  1  0.05179000  0.48234000  0.91511000  1
  Si  Si1  1  0.94821000  0.51766000  0.08489000  1
  Si  Si2  1  0.07258000  0.70899000  0.79527000  1
  Si  Si3  1  0.92742000  0.29101000  0.20473000  1
  Si  Si4  1  0.05733000  0.85943000  0.91674000  1
  Si  Si5  1  0.94267000  0.14057000  0.08326000  1
  Si  Si6  1  0.15670000  0.81073000  0.70182000  1
  Si  Si7  1  0.84330000  0.18927000  0.29818000  1
  Si  Si8  1  0.07690000  0.89810000  0.42328000  1
  Si  Si9  1  0.92310000  0.10190000  0.57672000  1
  Si  Si10  1  0.16828000  0.85774000  0.34649000  1
  Si  Si11  1  0.83172000  0.14226000  0.65351000  1
  Si  Si12  1  0.10153000  0.72914000  0.17864000  1
  Si  Si13  1  0.89847000  0.27086000  0.82136000  1
  Si  Si14  1  0.09116000  0.10940000  0.16780000  1
  Si  Si15  1  0.90884000  0.89060000  0.83220000  1
  Si  Si16  1  0.31108000  0.85323000  0.56472000  1
  Si  Si17  1  0.68892000  0.14677000  0.43528000  1
  Si  Si18  1  0.30251000  0.71347000  0.78004000  1
  Si  Si19  1  0.69749000  0.28653000  0.21996000  1
  Si  Si20  1  0.39421000  0.47891000  0.91981000  1
  Si  Si21  1  0.60579000  0.52109000  0.08019000  1
  Si  Si22  1  0.49287000  0.50757000  0.83426000  1
  Si  Si23  1  0.50713000  0.49243000  0.16574000  1
  Si  Si24  1  0.45775000  0.75419000  0.66666667  1
  Si  Si25  1  0.54225000  0.24581000  0.33333333  1
  Si  Si26  1  0.49044000  0.89125000  0.83310000  1
  Si  Si27  1  0.50956000  0.10875000  0.16690000  1
  Si  Si28  1  0.39214000  0.86637000  0.90875000  1
  Si  Si29  1  0.60786000  0.13363000  0.09125000  1
  Si  Si30  1  0.47586000  0.88681000  0.47318000  1
  Si  Si31  1  0.52414000  0.11319000  0.52682000  1
  Si  Si32  1  0.45639000  0.13865000  0.65411000  1
  Si  Si33  1  0.54361000  0.86135000  0.34589000  1
  Si  Si34  1  0.48678000  0.26845000  0.82588000  1
  Si  Si35  1  0.51322000  0.73155000  0.17412000  1
  Si  Si36  1  0.38987000  0.24291000  0.90373000  1
  Si  Si37  1  0.61013000  0.75709000  0.09627000  1
  Si  Si38  1  0.29803000  0.10165000  0.77347000  1
  Si  Si39  1  0.70197000  0.89835000  0.22653000  1
  Si  Si40  1  0.31039000  0.10906000  0.56289000  1
  Si  Si41  1  0.68961000  0.89094000  0.43711000  1
  Si  Si42  1  0.16553000  0.24310000  0.33869000  1
  Si  Si43  1  0.83447000  0.75690000  0.66131000  1
  Si  Si44  1  0.09973000  0.48917000  0.16751000  1
  Si  Si45  1  0.90027000  0.51083000  0.83249000  1
  Si  Si46  1  0.07315000  0.14459000  0.41455000  1
  Si  Si47  1  0.92685000  0.85541000  0.58545000  1
  Si  Si48  1  0.15287000  0.05735000  0.69252000  1
  Si  Si49  1  0.84713000  0.94265000  0.30748000  1
  Si  Si50  1  0.06908000  0.09844000  0.78540000  1
  Si  Si51  1  0.93092000  0.90156000  0.21460000  1
  Si  Si52  1  0.04591000  0.24206000  0.90486000  1
  Si  Si53  1  0.95409000  0.75794000  0.09514000  1
