# generated using pymatgen
data_SiO4
_symmetry_space_group_name_H-M   'P 1'
_cell_length_a   24.20050000
_cell_length_b   12.53990000
_cell_length_c   14.25020000
_cell_angle_alpha   72.59900000
_cell_angle_beta   123.12800000
_cell_angle_gamma   90.00000000
_symmetry_Int_Tables_number   1
_chemical_formula_structural   SiO4
_chemical_formula_sum   'Si1 O4'
_cell_volume   3382.79804958
_cell_formula_units_Z   1
loop_
 _symmetry_equiv_pos_site_id
 _symmetry_equiv_pos_as_xyz
  1  'x, y, z'
loop_
 _atom_site_type_symbol
 _atom_site_label
 _atom_site_symmetry_multiplicity
 _atom_site_fract_x
 _atom_site_fract_y
 _atom_site_fract_z
 _atom_site_occupancy
  Si  Si0  1  0.38987000  0.24291000  0.90373000  1
  O  O1  1  0.37424000  0.35587000  0.92370000  1
  O  O2  1  0.44414000  0.14492000  1.03087000  1
  O  O3  1  0.41965000  0.27200000  0.82398000  1
  O  O4  1  0.32160000  0.19659000  0.83529000  1
