# generated using pymatgen
data_SiO4
_symmetry_space_group_name_H-M   'P 1'
_cell_length_a   24.20050000
_cell_length_b   12.53990000
_cell_length_c   14.25020000
_cell_angle_alpha   72.59900000
_cell_angle_beta   123.12800000
_cell_angle_gamma   90.00000000
_symmetry_Int_Tables_number   1
_chemical_formula_structural   SiO4
_chemical_formula_sum   'Si1 O4'
_cell_volume   3382.79804958
_cell_formula_units_Z   1
loop_
 _symmetry_equiv_pos_site_id
 _symmetry_equiv_pos_as_xyz
  1  'x, y, z'
loop_
 _atom_site_type_symbol
 _atom_site_label
 _atom_site_symmetry_multiplicity
 _atom_site_fract_x
 _atom_site_fract_y
 _atom_site_fract_z
 _atom_site_occupancy
  Si  Si0  1  0.50956000  0.10875000  0.16690000  1
  O  O1  1  0.50689000  0.20203000  0.22192000  1
  O  O2  1  0.44414000  0.14492000  0.03087000  1
  O  O3  1  0.57652000  0.10269000  0.16849000  1
  O  O4  1  0.50804000  -0.01363000  0.24351000  1
