# generated using pymatgen
data_SiO4
_symmetry_space_group_name_H-M   'P 1'
_cell_length_a   24.20050000
_cell_length_b   12.53990000
_cell_length_c   14.25020000
_cell_angle_alpha   72.59900000
_cell_angle_beta   123.12800000
_cell_angle_gamma   90.00000000
_symmetry_Int_Tables_number   1
_chemical_formula_structural   SiO4
_chemical_formula_sum   'Si1 O4'
_cell_volume   3382.79804958
_cell_formula_units_Z   1
loop_
 _symmetry_equiv_pos_site_id
 _symmetry_equiv_pos_as_xyz
  1  'x, y, z'
loop_
 _atom_site_type_symbol
 _atom_site_label
 _atom_site_symmetry_multiplicity
 _atom_site_fract_x
 _atom_site_fract_y
 _atom_site_fract_z
 _atom_site_occupancy
  Si  Si0  1  0.84330000  0.18927000  0.29818000  1
  O  O1  1  0.86896000  0.27409000  0.22682000  1
  O  O2  1  0.82896000  0.07996000  0.25736000  1
  O  O3  1  0.77489000  0.25431000  0.26706000  1
  O  O4  1  0.90061000  0.14810000  0.44008000  1
