# generated using pymatgen
data_SiO4
_symmetry_space_group_name_H-M   'P 1'
_cell_length_a   20.76220000
_cell_length_b   11.70674000
_cell_length_c   11.04611000
_cell_angle_alpha   90.00000000
_cell_angle_beta   119.04700000
_cell_angle_gamma   90.00000000
_symmetry_Int_Tables_number   1
_chemical_formula_structural   SiO4
_chemical_formula_sum   'Si1 O4'
_cell_volume   2347.14705387
_cell_formula_units_Z   1
loop_
 _symmetry_equiv_pos_site_id
 _symmetry_equiv_pos_as_xyz
  1  'x, y, z'
loop_
 _atom_site_type_symbol
 _atom_site_label
 _atom_site_symmetry_multiplicity
 _atom_site_fract_x
 _atom_site_fract_y
 _atom_site_fract_z
 _atom_site_occupancy
  Si  Si0  1  0.67257000  0.08698000  0.74765000  1
  O  O1  1  0.64509000  -0.04069000  0.69257000  1
  O  O2  1  0.74141000  0.08197000  0.90208000  1
  O  O3  1  0.60627000  0.15833000  0.74758000  1
  O  O4  1  0.69764000  0.14853000  0.64679000  1
