# generated using pymatgen
data_O2
_symmetry_space_group_name_H-M   'P 1'
_cell_length_a   20.76220000
_cell_length_b   11.70674000
_cell_length_c   11.04611000
_cell_angle_alpha   90.00000000
_cell_angle_beta   119.04700000
_cell_angle_gamma   90.00000000
_symmetry_Int_Tables_number   1
_chemical_formula_structural   O2
_chemical_formula_sum   O80
_cell_volume   2347.14705387
_cell_formula_units_Z   40
loop_
 _symmetry_equiv_pos_site_id
 _symmetry_equiv_pos_as_xyz
  1  'x, y, z'
loop_
 _atom_site_type_symbol
 _atom_site_label
 _atom_site_symmetry_multiplicity
 _atom_site_fract_x
 _atom_site_fract_y
 _atom_site_fract_z
 _atom_site_occupancy
  O  O0  1  0.75956000  0.63763000  0.36759000  1
  O  O1  1  0.24044000  0.63763000  0.13241000  1
  O  O2  1  0.24044000  0.36237000  0.63241000  1
  O  O3  1  0.75956000  0.36237000  0.86759000  1
  O  O4  1  0.25956000  0.13763000  0.36759000  1
  O  O5  1  0.74044000  0.13763000  0.13241000  1
  O  O6  1  0.74044000  0.86237000  0.63241000  1
  O  O7  1  0.25956000  0.86237000  0.86759000  1
  O  O8  1  0.85491000  0.54069000  0.30743000  1
  O  O9  1  0.14509000  0.54069000  0.19257000  1
  O  O10  1  0.14509000  0.45931000  0.69257000  1
  O  O11  1  0.85491000  0.45931000  0.80743000  1
  O  O12  1  0.35491000  0.04069000  0.30743000  1
  O  O13  1  0.64509000  0.04069000  0.19257000  1
  O  O14  1  0.64509000  0.95931000  0.69257000  1
  O  O15  1  0.35491000  0.95931000  0.80743000  1
  O  O16  1  0.90108000  0.67791000  0.52261000  1
  O  O17  1  0.09892000  0.67791000  0.97739000  1
  O  O18  1  0.09892000  0.32209000  0.47739000  1
  O  O19  1  0.90108000  0.32209000  0.02261000  1
  O  O20  1  0.40108000  0.17791000  0.52261000  1
  O  O21  1  0.59892000  0.17791000  0.97739000  1
  O  O22  1  0.59892000  0.82209000  0.47739000  1
  O  O23  1  0.40108000  0.82209000  0.02261000  1
  O  O24  1  0.82992000  0.76143000  0.27049000  1
  O  O25  1  0.17008000  0.76143000  0.22951000  1
  O  O26  1  0.17008000  0.23857000  0.72951000  1
  O  O27  1  0.82992000  0.23857000  0.77049000  1
  O  O28  1  0.32992000  0.26143000  0.27049000  1
  O  O29  1  0.67008000  0.26143000  0.22951000  1
  O  O30  1  0.67008000  0.73857000  0.72951000  1
  O  O31  1  0.32992000  0.73857000  0.77049000  1
  O  O32  1  0.75859000  0.58197000  0.59792000  1
  O  O33  1  0.24141000  0.58197000  0.90208000  1
  O  O34  1  0.24141000  0.41803000  0.40208000  1
  O  O35  1  0.75859000  0.41803000  0.09792000  1
  O  O36  1  0.25859000  0.08197000  0.59792000  1
  O  O37  1  0.74141000  0.08197000  0.90208000  1
  O  O38  1  0.74141000  0.91803000  0.40208000  1
  O  O39  1  0.25859000  0.91803000  0.09792000  1
  O  O40  1  0.63597000  0.64482000  0.37868000  1
  O  O41  1  0.36403000  0.64482000  0.12132000  1
  O  O42  1  0.36403000  0.35518000  0.62132000  1
  O  O43  1  0.63597000  0.35518000  0.87868000  1
  O  O44  1  0.13597000  0.14482000  0.37868000  1
  O  O45  1  0.86403000  0.14482000  0.12132000  1
  O  O46  1  0.86403000  0.85518000  0.62132000  1
  O  O47  1  0.13597000  0.85518000  0.87868000  1
  O  O48  1  0.69577000  0.44739000  0.38037000  1
  O  O49  1  0.30423000  0.44739000  0.11963000  1
  O  O50  1  0.30423000  0.55261000  0.61963000  1
  O  O51  1  0.69577000  0.55261000  0.88037000  1
  O  O52  1  0.19577000  0.94739000  0.38037000  1
  O  O53  1  0.80423000  0.94739000  0.11963000  1
  O  O54  1  0.80423000  0.05261000  0.61963000  1
  O  O55  1  0.19577000  0.05261000  0.88037000  1
  O  O56  1  0.89373000  0.65833000  0.75242000  1
  O  O57  1  0.10627000  0.65833000  0.74758000  1
  O  O58  1  0.10627000  0.34167000  0.24758000  1
  O  O59  1  0.89373000  0.34167000  0.25242000  1
  O  O60  1  0.39373000  0.15833000  0.75242000  1
  O  O61  1  0.60627000  0.15833000  0.74758000  1
  O  O62  1  0.60627000  0.84167000  0.24758000  1
  O  O63  1  0.39373000  0.84167000  0.25242000  1
  O  O64  1  0.80236000  0.64853000  0.85321000  1
  O  O65  1  0.19764000  0.64853000  0.64679000  1
  O  O66  1  0.19764000  0.35147000  0.14679000  1
  O  O67  1  0.80236000  0.35147000  0.35321000  1
  O  O68  1  0.30236000  0.14853000  0.85321000  1
  O  O69  1  0.69764000  0.14853000  0.64679000  1
  O  O70  1  0.69764000  0.85147000  0.14679000  1
  O  O71  1  0.30236000  0.85147000  0.35321000  1
  O  O72  1  0.50000000  0.27931000  0.75000000  1
  O  O73  1  0.50000000  0.72069000  0.25000000  1
  O  O74  1  0.00000000  0.77931000  0.75000000  1
  O  O75  1  0.00000000  0.22069000  0.25000000  1
  O  O76  1  0.75000000  0.25000000  0.50000000  1
  O  O77  1  0.25000000  0.25000000  0.00000000  1
  O  O78  1  0.25000000  0.75000000  0.50000000  1
  O  O79  1  0.75000000  0.75000000  0.00000000  1
