# generated using pymatgen
data_O2
_symmetry_space_group_name_H-M   'P 1'
_cell_length_a   13.67500000
_cell_length_b   13.67500000
_cell_length_c   14.76700000
_cell_angle_alpha   90.00000000
_cell_angle_beta   90.00000000
_cell_angle_gamma   120.00000000
_symmetry_Int_Tables_number   1
_chemical_formula_structural   O2
_chemical_formula_sum   O96
_cell_volume   2391.53960061
_cell_formula_units_Z   48
loop_
 _symmetry_equiv_pos_site_id
 _symmetry_equiv_pos_as_xyz
  1  'x, y, z'
loop_
 _atom_site_type_symbol
 _atom_site_label
 _atom_site_symmetry_multiplicity
 _atom_site_fract_x
 _atom_site_fract_y
 _atom_site_fract_z
 _atom_site_occupancy
  O  O0  1  0.90200000  0.09800000  0.12270000  1
  O  O1  1  0.56866667  0.43133333  0.45603333  1
  O  O2  1  0.23533333  0.76466667  0.78936667  1
  O  O3  1  0.90200000  0.80400000  0.12270000  1
  O  O4  1  0.56866667  0.13733333  0.45603333  1
  O  O5  1  0.23533333  0.47066667  0.78936667  1
  O  O6  1  0.19600000  0.09800000  0.12270000  1
  O  O7  1  0.86266667  0.43133333  0.45603333  1
  O  O8  1  0.52933333  0.76466667  0.78936667  1
  O  O9  1  0.09800000  0.90200000  0.87730000  1
  O  O10  1  0.76466667  0.23533333  0.21063333  1
  O  O11  1  0.43133333  0.56866667  0.54396667  1
  O  O12  1  0.09800000  0.19600000  0.87730000  1
  O  O13  1  0.76466667  0.52933333  0.21063333  1
  O  O14  1  0.43133333  0.86266667  0.54396667  1
  O  O15  1  0.80400000  0.90200000  0.87730000  1
  O  O16  1  0.47066667  0.23533333  0.21063333  1
  O  O17  1  0.13733333  0.56866667  0.54396667  1
  O  O18  1  0.97670000  0.31010000  0.16670000  1
  O  O19  1  0.64336667  0.64343333  0.50003333  1
  O  O20  1  0.31003333  0.97676667  0.83336667  1
  O  O21  1  0.68990000  0.66660000  0.16670000  1
  O  O22  1  0.35656667  0.99993333  0.50003333  1
  O  O23  1  0.02323333  0.33326667  0.83336667  1
  O  O24  1  0.33340000  0.02330000  0.16670000  1
  O  O25  1  0.00006667  0.35663333  0.50003333  1
  O  O26  1  0.66673333  0.68996667  0.83336667  1
  O  O27  1  0.68990000  0.02330000  0.16670000  1
  O  O28  1  0.35656667  0.35663333  0.50003333  1
  O  O29  1  0.02323333  0.68996667  0.83336667  1
  O  O30  1  0.33340000  0.31010000  0.16670000  1
  O  O31  1  0.00006667  0.64343333  0.50003333  1
  O  O32  1  0.66673333  0.97676667  0.83336667  1
  O  O33  1  0.97670000  0.66660000  0.16670000  1
  O  O34  1  0.64336667  0.99993333  0.50003333  1
  O  O35  1  0.31003333  0.33326667  0.83336667  1
  O  O36  1  0.31010000  0.33340000  0.83330000  1
  O  O37  1  0.97676667  0.66673333  0.16663333  1
  O  O38  1  0.64343333  0.00006667  0.49996667  1
  O  O39  1  0.66660000  0.97670000  0.83330000  1
  O  O40  1  0.33326667  0.31003333  0.16663333  1
  O  O41  1  0.99993333  0.64336667  0.49996667  1
  O  O42  1  0.66660000  0.68990000  0.83330000  1
  O  O43  1  0.33326667  0.02323333  0.16663333  1
  O  O44  1  0.99993333  0.35656667  0.49996667  1
  O  O45  1  0.02330000  0.33340000  0.83330000  1
  O  O46  1  0.68996667  0.66673333  0.16663333  1
  O  O47  1  0.35663333  0.00006667  0.49996667  1
  O  O48  1  0.12030000  0.24050000  0.13150000  1
  O  O49  1  0.78696667  0.57383333  0.46483333  1
  O  O50  1  0.45363333  0.90716667  0.79816667  1
  O  O51  1  0.75950000  0.87980000  0.13150000  1
  O  O52  1  0.42616667  0.21313333  0.46483333  1
  O  O53  1  0.09283333  0.54646667  0.79816667  1
  O  O54  1  0.12020000  0.87970000  0.13150000  1
  O  O55  1  0.78686667  0.21303333  0.46483333  1
  O  O56  1  0.45353333  0.54636667  0.79816667  1
  O  O57  1  0.42616667  0.21303333  0.46483333  1
  O  O58  1  0.12020000  0.24050000  0.13150000  1
  O  O59  1  0.45353333  0.90716667  0.79816667  1
  O  O60  1  0.12030000  0.87980000  0.13150000  1
  O  O61  1  0.78696667  0.21313333  0.46483333  1
  O  O62  1  0.45363333  0.54646667  0.79816667  1
  O  O63  1  0.87970000  0.75950000  0.86850000  1
  O  O64  1  0.54636667  0.09283333  0.20183333  1
  O  O65  1  0.21303333  0.42616667  0.53516667  1
  O  O66  1  0.24050000  0.12020000  0.86850000  1
  O  O67  1  0.90716667  0.45353333  0.20183333  1
  O  O68  1  0.57383333  0.78686667  0.53516667  1
  O  O69  1  0.87980000  0.12030000  0.86850000  1
  O  O70  1  0.54646667  0.45363333  0.20183333  1
  O  O71  1  0.21313333  0.78696667  0.53516667  1
  O  O72  1  0.24050000  0.12030000  0.86850000  1
  O  O73  1  0.90716667  0.45363333  0.20183333  1
  O  O74  1  0.21313333  0.42616667  0.53516667  1
  O  O75  1  0.87970000  0.12020000  0.86850000  1
  O  O76  1  0.54636667  0.45353333  0.20183333  1
  O  O77  1  0.21303333  0.78686667  0.53516667  1
  O  O78  1  0.00000000  0.25770000  0.00000000  1
  O  O79  1  0.66666667  0.59103333  0.33333333  1
  O  O80  1  0.33333333  0.92436667  0.66666667  1
  O  O81  1  0.74230000  0.74230000  0.00000000  1
  O  O82  1  0.40896667  0.07563333  0.33333333  1
  O  O83  1  0.07563333  0.40896667  0.66666667  1
  O  O84  1  0.25770000  0.00000000  0.00000000  1
  O  O85  1  0.92436667  0.33333333  0.33333333  1
  O  O86  1  0.59103333  0.66666667  0.66666667  1
  O  O87  1  0.74230000  0.00000000  0.00000000  1
  O  O88  1  0.40896667  0.33333333  0.33333333  1
  O  O89  1  0.07563333  0.66666667  0.66666667  1
  O  O90  1  0.25770000  0.25770000  0.00000000  1
  O  O91  1  0.92436667  0.59103333  0.33333333  1
  O  O92  1  0.59103333  0.92436667  0.66666667  1
  O  O93  1  0.00000000  0.74230000  0.00000000  1
  O  O94  1  0.66666667  0.07563333  0.33333333  1
  O  O95  1  0.33333333  0.40896667  0.66666667  1
