# generated using pymatgen
data_SiO4
_symmetry_space_group_name_H-M   'P 1'
_cell_length_a   13.67500000
_cell_length_b   13.67500000
_cell_length_c   14.76700000
_cell_angle_alpha   90.00000000
_cell_angle_beta   90.00000000
_cell_angle_gamma   120.00000000
_symmetry_Int_Tables_number   1
_chemical_formula_structural   SiO4
_chemical_formula_sum   'Si1 O4'
_cell_volume   2391.53960061
_cell_formula_units_Z   1
loop_
 _symmetry_equiv_pos_site_id
 _symmetry_equiv_pos_as_xyz
  1  'x, y, z'
loop_
 _atom_site_type_symbol
 _atom_site_label
 _atom_site_symmetry_multiplicity
 _atom_site_fract_x
 _atom_site_fract_y
 _atom_site_fract_z
 _atom_site_occupancy
  Si  Si0  1  0.33363333  0.44026667  0.56156667  1
  O  O1  1  0.43133333  0.56866667  0.54396667  1
  O  O2  1  0.35656667  0.35663333  0.50003333  1
  O  O3  1  0.21313333  0.42616667  0.53516667  1
  O  O4  1  0.33333333  0.40896667  0.66666667  1
