# generated using pymatgen
data_O2
_symmetry_space_group_name_H-M   'P 1'
_cell_length_a   15.94990000
_cell_length_b   15.94990000
_cell_length_c   31.07960000
_cell_angle_alpha   90.00000000
_cell_angle_beta   90.00000000
_cell_angle_gamma   120.00000000
_symmetry_Int_Tables_number   1
_chemical_formula_structural   O2
_chemical_formula_sum   O166
_cell_volume   6847.34139510
_cell_formula_units_Z   83
loop_
 _symmetry_equiv_pos_site_id
 _symmetry_equiv_pos_as_xyz
  1  'x, y, z'
loop_
 _atom_site_type_symbol
 _atom_site_label
 _atom_site_symmetry_multiplicity
 _atom_site_fract_x
 _atom_site_fract_y
 _atom_site_fract_z
 _atom_site_occupancy
  O  O0  1  0.44070000  0.33050000  0.98290000  1
  O  O1  1  0.66950000  0.11020000  0.98290000  1
  O  O2  1  0.88980000  0.55930000  0.98290000  1
  O  O3  1  0.55930000  0.66950000  0.48290000  1
  O  O4  1  0.33050000  0.88980000  0.48290000  1
  O  O5  1  0.11020000  0.44070000  0.48290000  1
  O  O6  1  0.33050000  0.44070000  0.48290000  1
  O  O7  1  0.11020000  0.66950000  0.48290000  1
  O  O8  1  0.55930000  0.88980000  0.48290000  1
  O  O9  1  0.66950000  0.55930000  0.98290000  1
  O  O10  1  0.88980000  0.33050000  0.98290000  1
  O  O11  1  0.44070000  0.11020000  0.98290000  1
  O  O12  1  0.55930000  0.66950000  0.01710000  1
  O  O13  1  0.33050000  0.88980000  0.01710000  1
  O  O14  1  0.11020000  0.44070000  0.01710000  1
  O  O15  1  0.44070000  0.33050000  0.51710000  1
  O  O16  1  0.66950000  0.11020000  0.51710000  1
  O  O17  1  0.88980000  0.55930000  0.51710000  1
  O  O18  1  0.66950000  0.55930000  0.51710000  1
  O  O19  1  0.88980000  0.33050000  0.51710000  1
  O  O20  1  0.44070000  0.11020000  0.51710000  1
  O  O21  1  0.33050000  0.44070000  0.01710000  1
  O  O22  1  0.11020000  0.66950000  0.01710000  1
  O  O23  1  0.55930000  0.88980000  0.01710000  1
  O  O24  1  0.58800000  0.41200000  0.03630000  1
  O  O25  1  0.58800000  0.17600000  0.03630000  1
  O  O26  1  0.82400000  0.41200000  0.03630000  1
  O  O27  1  0.41200000  0.58800000  0.53630000  1
  O  O28  1  0.41200000  0.82400000  0.53630000  1
  O  O29  1  0.17600000  0.58800000  0.53630000  1
  O  O30  1  0.41200000  0.58800000  0.96370000  1
  O  O31  1  0.41200000  0.82400000  0.96370000  1
  O  O32  1  0.17600000  0.58800000  0.96370000  1
  O  O33  1  0.58800000  0.41200000  0.46370000  1
  O  O34  1  0.58800000  0.17600000  0.46370000  1
  O  O35  1  0.82400000  0.41200000  0.46370000  1
  O  O36  1  0.45660000  0.22830000  0.04550000  1
  O  O37  1  0.77170000  0.22830000  0.04550000  1
  O  O38  1  0.77170000  0.54340000  0.04550000  1
  O  O39  1  0.54340000  0.77170000  0.54550000  1
  O  O40  1  0.22830000  0.77170000  0.54550000  1
  O  O41  1  0.22830000  0.45660000  0.54550000  1
  O  O42  1  0.54340000  0.77170000  0.95450000  1
  O  O43  1  0.22830000  0.77170000  0.95450000  1
  O  O44  1  0.22830000  0.45660000  0.95450000  1
  O  O45  1  0.45660000  0.22830000  0.45450000  1
  O  O46  1  0.77170000  0.22830000  0.45450000  1
  O  O47  1  0.77170000  0.54340000  0.45450000  1
  O  O48  1  0.41310000  0.36370000  0.06290000  1
  O  O49  1  0.63630000  0.04940000  0.06290000  1
  O  O50  1  0.95060000  0.58690000  0.06290000  1
  O  O51  1  0.58690000  0.63630000  0.56290000  1
  O  O52  1  0.36370000  0.95060000  0.56290000  1
  O  O53  1  0.04940000  0.41310000  0.56290000  1
  O  O54  1  0.36370000  0.41310000  0.56290000  1
  O  O55  1  0.04940000  0.63630000  0.56290000  1
  O  O56  1  0.58690000  0.95060000  0.56290000  1
  O  O57  1  0.63630000  0.58690000  0.06290000  1
  O  O58  1  0.95060000  0.36370000  0.06290000  1
  O  O59  1  0.41310000  0.04940000  0.06290000  1
  O  O60  1  0.58690000  0.63630000  0.93710000  1
  O  O61  1  0.36370000  0.95060000  0.93710000  1
  O  O62  1  0.04940000  0.41310000  0.93710000  1
  O  O63  1  0.41310000  0.36370000  0.43710000  1
  O  O64  1  0.63630000  0.04940000  0.43710000  1
  O  O65  1  0.95060000  0.58690000  0.43710000  1
  O  O66  1  0.63630000  0.58690000  0.43710000  1
  O  O67  1  0.95060000  0.36370000  0.43710000  1
  O  O68  1  0.41310000  0.04940000  0.43710000  1
  O  O69  1  0.36370000  0.41310000  0.93710000  1
  O  O70  1  0.04940000  0.63630000  0.93710000  1
  O  O71  1  0.58690000  0.95060000  0.93710000  1
  O  O72  1  0.45660000  0.54340000  0.07710000  1
  O  O73  1  0.45660000  0.91320000  0.07710000  1
  O  O74  1  0.08680000  0.54340000  0.07710000  1
  O  O75  1  0.54340000  0.45660000  0.57710000  1
  O  O76  1  0.54340000  0.08680000  0.57710000  1
  O  O77  1  0.91320000  0.45660000  0.57710000  1
  O  O78  1  0.54340000  0.45660000  0.92290000  1
  O  O79  1  0.54340000  0.08680000  0.92290000  1
  O  O80  1  0.91320000  0.45660000  0.92290000  1
  O  O81  1  0.45660000  0.54340000  0.42290000  1
  O  O82  1  0.45660000  0.91320000  0.42290000  1
  O  O83  1  0.08680000  0.54340000  0.42290000  1
  O  O84  1  0.28250000  0.39790000  0.09770000  1
  O  O85  1  0.60210000  0.88460000  0.09770000  1
  O  O86  1  0.11540000  0.71750000  0.09770000  1
  O  O87  1  0.71750000  0.60210000  0.59770000  1
  O  O88  1  0.39790000  0.11540000  0.59770000  1
  O  O89  1  0.88460000  0.28250000  0.59770000  1
  O  O90  1  0.39790000  0.28250000  0.59770000  1
  O  O91  1  0.88460000  0.60210000  0.59770000  1
  O  O92  1  0.71750000  0.11540000  0.59770000  1
  O  O93  1  0.60210000  0.71750000  0.09770000  1
  O  O94  1  0.11540000  0.39790000  0.09770000  1
  O  O95  1  0.28250000  0.88460000  0.09770000  1
  O  O96  1  0.71750000  0.60210000  0.90230000  1
  O  O97  1  0.39790000  0.11540000  0.90230000  1
  O  O98  1  0.88460000  0.28250000  0.90230000  1
  O  O99  1  0.28250000  0.39790000  0.40230000  1
  O  O100  1  0.60210000  0.88460000  0.40230000  1
  O  O101  1  0.11540000  0.71750000  0.40230000  1
  O  O102  1  0.60210000  0.71750000  0.40230000  1
  O  O103  1  0.11540000  0.39790000  0.40230000  1
  O  O104  1  0.28250000  0.88460000  0.40230000  1
  O  O105  1  0.39790000  0.28250000  0.90230000  1
  O  O106  1  0.88460000  0.60210000  0.90230000  1
  O  O107  1  0.71750000  0.11540000  0.90230000  1
  O  O108  1  0.22950000  0.45890000  0.16670000  1
  O  O109  1  0.54110000  0.77060000  0.16670000  1
  O  O110  1  0.22940000  0.77050000  0.16670000  1
  O  O111  1  0.77050000  0.54110000  0.66670000  1
  O  O112  1  0.45890000  0.22940000  0.66670000  1
  O  O113  1  0.77060000  0.22950000  0.66670000  1
  O  O114  1  0.45890000  0.22950000  0.66670000  1
  O  O115  1  0.77060000  0.54110000  0.66670000  1
  O  O116  1  0.77050000  0.22940000  0.66670000  1
  O  O117  1  0.54110000  0.77050000  0.16670000  1
  O  O118  1  0.22940000  0.45890000  0.16670000  1
  O  O119  1  0.22950000  0.77060000  0.16670000  1
  O  O120  1  0.77050000  0.54110000  0.83330000  1
  O  O121  1  0.45890000  0.22940000  0.83330000  1
  O  O122  1  0.77060000  0.22950000  0.83330000  1
  O  O123  1  0.22950000  0.45890000  0.33330000  1
  O  O124  1  0.54110000  0.77060000  0.33330000  1
  O  O125  1  0.22940000  0.77050000  0.33330000  1
  O  O126  1  0.54110000  0.77050000  0.33330000  1
  O  O127  1  0.22940000  0.45890000  0.33330000  1
  O  O128  1  0.22950000  0.77060000  0.33330000  1
  O  O129  1  0.45890000  0.22950000  0.83330000  1
  O  O130  1  0.77060000  0.54110000  0.83330000  1
  O  O131  1  0.77050000  0.22940000  0.83330000  1
  O  O132  1  0.38770000  0.61230000  0.19610000  1
  O  O133  1  0.38770000  0.77540000  0.19610000  1
  O  O134  1  0.22460000  0.61230000  0.19610000  1
  O  O135  1  0.61230000  0.38770000  0.69610000  1
  O  O136  1  0.61230000  0.22460000  0.69610000  1
  O  O137  1  0.77540000  0.38770000  0.69610000  1
  O  O138  1  0.61230000  0.38770000  0.80390000  1
  O  O139  1  0.61230000  0.22460000  0.80390000  1
  O  O140  1  0.77540000  0.38770000  0.80390000  1
  O  O141  1  0.38770000  0.61230000  0.30390000  1
  O  O142  1  0.38770000  0.77540000  0.30390000  1
  O  O143  1  0.22460000  0.61230000  0.30390000  1
  O  O144  1  0.25050000  0.50110000  0.25000000  1
  O  O145  1  0.49890000  0.74940000  0.25000000  1
  O  O146  1  0.25060000  0.74950000  0.25000000  1
  O  O147  1  0.74950000  0.49890000  0.75000000  1
  O  O148  1  0.50110000  0.25060000  0.75000000  1
  O  O149  1  0.74940000  0.25050000  0.75000000  1
  O  O150  1  0.27870000  0.55730000  0.09420000  1
  O  O151  1  0.44270000  0.72140000  0.09420000  1
  O  O152  1  0.27860000  0.72130000  0.09420000  1
  O  O153  1  0.72130000  0.44270000  0.59420000  1
  O  O154  1  0.55730000  0.27860000  0.59420000  1
  O  O155  1  0.72140000  0.27870000  0.59420000  1
  O  O156  1  0.72130000  0.44270000  0.90580000  1
  O  O157  1  0.55730000  0.27860000  0.90580000  1
  O  O158  1  0.72140000  0.27870000  0.90580000  1
  O  O159  1  0.27870000  0.55730000  0.40580000  1
  O  O160  1  0.44270000  0.72140000  0.40580000  1
  O  O161  1  0.27860000  0.72130000  0.40580000  1
  O  O162  1  0.33333333  0.66666667  0.02470000  1
  O  O163  1  0.66666667  0.33333333  0.52470000  1
  O  O164  1  0.66666667  0.33333333  0.97530000  1
  O  O165  1  0.33333333  0.66666667  0.47530000  1
