# generated using pymatgen
data_SiO4
_symmetry_space_group_name_H-M   'P 1'
_cell_length_a   15.94990000
_cell_length_b   15.94990000
_cell_length_c   31.07960000
_cell_angle_alpha   90.00000000
_cell_angle_beta   90.00000000
_cell_angle_gamma   120.00000000
_symmetry_Int_Tables_number   1
_chemical_formula_structural   SiO4
_chemical_formula_sum   'Si1 O4'
_cell_volume   6847.34139510
_cell_formula_units_Z   1
loop_
 _symmetry_equiv_pos_site_id
 _symmetry_equiv_pos_as_xyz
  1  'x, y, z'
loop_
 _atom_site_type_symbol
 _atom_site_label
 _atom_site_symmetry_multiplicity
 _atom_site_fract_x
 _atom_site_fract_y
 _atom_site_fract_z
 _atom_site_occupancy
  Si  Si0  1  0.47460000  0.33350000  0.46810000  1
  O  O1  1  0.44070000  0.33050000  0.51710000  1
  O  O2  1  0.58800000  0.41200000  0.46370000  1
  O  O3  1  0.45660000  0.22830000  0.45450000  1
  O  O4  1  0.41310000  0.36370000  0.43710000  1
