# generated using pymatgen
data_SiO4
_symmetry_space_group_name_H-M   'P 1'
_cell_length_a   15.94990000
_cell_length_b   15.94990000
_cell_length_c   31.07960000
_cell_angle_alpha   90.00000000
_cell_angle_beta   90.00000000
_cell_angle_gamma   120.00000000
_symmetry_Int_Tables_number   1
_chemical_formula_structural   SiO4
_chemical_formula_sum   'Si1 O4'
_cell_volume   6847.34139510
_cell_formula_units_Z   1
loop_
 _symmetry_equiv_pos_site_id
 _symmetry_equiv_pos_as_xyz
  1  'x, y, z'
loop_
 _atom_site_type_symbol
 _atom_site_label
 _atom_site_symmetry_multiplicity
 _atom_site_fract_x
 _atom_site_fract_y
 _atom_site_fract_z
 _atom_site_occupancy
  Si  Si0  1  0.56310000  0.62890000  0.43600000  1
  O  O1  1  0.55930000  0.66950000  0.48290000  1
  O  O2  1  0.63630000  0.58690000  0.43710000  1
  O  O3  1  0.45660000  0.54340000  0.42290000  1
  O  O4  1  0.60210000  0.71750000  0.40230000  1
