# generated using pymatgen
data_SiO4
_symmetry_space_group_name_H-M   'P 1'
_cell_length_a   10.00200000
_cell_length_b   10.00200000
_cell_length_c   34.14100000
_cell_angle_alpha   90.00000000
_cell_angle_beta   90.00000000
_cell_angle_gamma   90.00000000
_symmetry_Int_Tables_number   1
_chemical_formula_structural   SiO4
_chemical_formula_sum   'Si1 O4'
_cell_volume   3415.46577656
_cell_formula_units_Z   1
loop_
 _symmetry_equiv_pos_site_id
 _symmetry_equiv_pos_as_xyz
  1  'x, y, z'
loop_
 _atom_site_type_symbol
 _atom_site_label
 _atom_site_symmetry_multiplicity
 _atom_site_fract_x
 _atom_site_fract_y
 _atom_site_fract_z
 _atom_site_occupancy
  Si  Si0  1  0.09850000  0.79710000  0.40320000  1
  O  O1  1  0.00450000  0.68170000  0.42120000  1
  O  O2  1  0.03450000  0.84850000  0.36260000  1
  O  O3  1  0.10560000  0.91980000  0.43360000  1
  O  O4  1  0.25000000  0.75000000  0.39540000  1
