# generated using pymatgen
data_O2
_symmetry_space_group_name_H-M   'P 1'
_cell_length_a   10.00200000
_cell_length_b   10.00200000
_cell_length_c   34.14100000
_cell_angle_alpha   90.00000000
_cell_angle_beta   90.00000000
_cell_angle_gamma   90.00000000
_symmetry_Int_Tables_number   1
_chemical_formula_structural   O2
_chemical_formula_sum   O120
_cell_volume   3415.46577656
_cell_formula_units_Z   60
loop_
 _symmetry_equiv_pos_site_id
 _symmetry_equiv_pos_as_xyz
  1  'x, y, z'
loop_
 _atom_site_type_symbol
 _atom_site_label
 _atom_site_symmetry_multiplicity
 _atom_site_fract_x
 _atom_site_fract_y
 _atom_site_fract_z
 _atom_site_occupancy
  O  O0  1  0.00450000  0.81830000  0.92120000  1
  O  O1  1  0.68170000  0.00450000  0.42120000  1
  O  O2  1  0.49550000  0.68170000  0.92120000  1
  O  O3  1  0.81830000  0.49550000  0.42120000  1
  O  O4  1  0.49550000  0.81830000  0.42120000  1
  O  O5  1  0.81830000  0.00450000  0.92120000  1
  O  O6  1  0.00450000  0.68170000  0.42120000  1
  O  O7  1  0.68170000  0.49550000  0.92120000  1
  O  O8  1  0.99550000  0.18170000  0.07880000  1
  O  O9  1  0.31830000  0.99550000  0.57880000  1
  O  O10  1  0.50450000  0.31830000  0.07880000  1
  O  O11  1  0.18170000  0.50450000  0.57880000  1
  O  O12  1  0.50450000  0.18170000  0.57880000  1
  O  O13  1  0.18170000  0.99550000  0.07880000  1
  O  O14  1  0.99550000  0.31830000  0.57880000  1
  O  O15  1  0.31830000  0.50450000  0.07880000  1
  O  O16  1  0.03450000  0.65150000  0.86260000  1
  O  O17  1  0.84850000  0.03450000  0.36260000  1
  O  O18  1  0.46550000  0.84850000  0.86260000  1
  O  O19  1  0.65150000  0.46550000  0.36260000  1
  O  O20  1  0.46550000  0.65150000  0.36260000  1
  O  O21  1  0.65150000  0.03450000  0.86260000  1
  O  O22  1  0.03450000  0.84850000  0.36260000  1
  O  O23  1  0.84850000  0.46550000  0.86260000  1
  O  O24  1  0.96550000  0.34850000  0.13740000  1
  O  O25  1  0.15150000  0.96550000  0.63740000  1
  O  O26  1  0.53450000  0.15150000  0.13740000  1
  O  O27  1  0.34850000  0.53450000  0.63740000  1
  O  O28  1  0.53450000  0.34850000  0.63740000  1
  O  O29  1  0.34850000  0.96550000  0.13740000  1
  O  O30  1  0.96550000  0.15150000  0.63740000  1
  O  O31  1  0.15150000  0.53450000  0.13740000  1
  O  O32  1  0.10560000  0.58020000  0.93360000  1
  O  O33  1  0.91980000  0.10560000  0.43360000  1
  O  O34  1  0.39440000  0.91980000  0.93360000  1
  O  O35  1  0.58020000  0.39440000  0.43360000  1
  O  O36  1  0.39440000  0.58020000  0.43360000  1
  O  O37  1  0.58020000  0.10560000  0.93360000  1
  O  O38  1  0.10560000  0.91980000  0.43360000  1
  O  O39  1  0.91980000  0.39440000  0.93360000  1
  O  O40  1  0.89440000  0.41980000  0.06640000  1
  O  O41  1  0.08020000  0.89440000  0.56640000  1
  O  O42  1  0.60560000  0.08020000  0.06640000  1
  O  O43  1  0.41980000  0.60560000  0.56640000  1
  O  O44  1  0.60560000  0.41980000  0.56640000  1
  O  O45  1  0.41980000  0.89440000  0.06640000  1
  O  O46  1  0.89440000  0.08020000  0.56640000  1
  O  O47  1  0.08020000  0.60560000  0.06640000  1
  O  O48  1  0.25000000  0.75000000  0.89540000  1
  O  O49  1  0.75000000  0.25000000  0.39540000  1
  O  O50  1  0.25000000  0.75000000  0.39540000  1
  O  O51  1  0.75000000  0.25000000  0.89540000  1
  O  O52  1  0.75000000  0.25000000  0.10460000  1
  O  O53  1  0.25000000  0.75000000  0.60460000  1
  O  O54  1  0.75000000  0.25000000  0.60460000  1
  O  O55  1  0.25000000  0.75000000  0.10460000  1
  O  O56  1  0.15850000  0.15850000  0.46230000  1
  O  O57  1  0.34150000  0.15850000  0.96230000  1
  O  O58  1  0.34150000  0.34150000  0.46230000  1
  O  O59  1  0.15850000  0.34150000  0.96230000  1
  O  O60  1  0.84150000  0.84150000  0.53770000  1
  O  O61  1  0.65850000  0.84150000  0.03770000  1
  O  O62  1  0.65850000  0.65850000  0.53770000  1
  O  O63  1  0.84150000  0.65850000  0.03770000  1
  O  O64  1  0.00000000  0.00000000  0.50000000  1
  O  O65  1  0.50000000  0.00000000  0.00000000  1
  O  O66  1  0.50000000  0.50000000  0.50000000  1
  O  O67  1  0.00000000  0.50000000  0.00000000  1
  O  O68  1  0.00300000  0.00300000  0.24420000  1
  O  O69  1  0.49700000  0.00300000  0.74420000  1
  O  O70  1  0.49700000  0.49700000  0.24420000  1
  O  O71  1  0.00300000  0.49700000  0.74420000  1
  O  O72  1  0.99700000  0.99700000  0.75580000  1
  O  O73  1  0.50300000  0.99700000  0.25580000  1
  O  O74  1  0.50300000  0.50300000  0.75580000  1
  O  O75  1  0.99700000  0.50300000  0.25580000  1
  O  O76  1  0.06400000  0.25000000  0.26400000  1
  O  O77  1  0.25000000  0.06400000  0.76400000  1
  O  O78  1  0.43600000  0.25000000  0.26400000  1
  O  O79  1  0.25000000  0.43600000  0.76400000  1
  O  O80  1  0.43600000  0.25000000  0.76400000  1
  O  O81  1  0.25000000  0.06400000  0.26400000  1
  O  O82  1  0.06400000  0.25000000  0.76400000  1
  O  O83  1  0.25000000  0.43600000  0.26400000  1
  O  O84  1  0.93600000  0.75000000  0.73600000  1
  O  O85  1  0.75000000  0.93600000  0.23600000  1
  O  O86  1  0.56400000  0.75000000  0.73600000  1
  O  O87  1  0.75000000  0.56400000  0.23600000  1
  O  O88  1  0.56400000  0.75000000  0.23600000  1
  O  O89  1  0.75000000  0.93600000  0.73600000  1
  O  O90  1  0.93600000  0.75000000  0.23600000  1
  O  O91  1  0.75000000  0.56400000  0.73600000  1
  O  O92  1  0.05980000  0.05980000  0.31720000  1
  O  O93  1  0.44020000  0.05980000  0.81720000  1
  O  O94  1  0.44020000  0.44020000  0.31720000  1
  O  O95  1  0.05980000  0.44020000  0.81720000  1
  O  O96  1  0.94020000  0.94020000  0.68280000  1
  O  O97  1  0.55980000  0.94020000  0.18280000  1
  O  O98  1  0.55980000  0.55980000  0.68280000  1
  O  O99  1  0.94020000  0.55980000  0.18280000  1
  O  O100  1  0.12120000  0.12120000  0.69890000  1
  O  O101  1  0.37880000  0.12120000  0.19890000  1
  O  O102  1  0.37880000  0.37880000  0.69890000  1
  O  O103  1  0.12120000  0.37880000  0.19890000  1
  O  O104  1  0.87880000  0.87880000  0.30110000  1
  O  O105  1  0.62120000  0.87880000  0.80110000  1
  O  O106  1  0.62120000  0.62120000  0.30110000  1
  O  O107  1  0.87880000  0.62120000  0.80110000  1
  O  O108  1  0.15740000  0.15740000  0.01800000  1
  O  O109  1  0.34260000  0.15740000  0.51800000  1
  O  O110  1  0.34260000  0.34260000  0.01800000  1
  O  O111  1  0.15740000  0.34260000  0.51800000  1
  O  O112  1  0.84260000  0.84260000  0.98200000  1
  O  O113  1  0.65740000  0.84260000  0.48200000  1
  O  O114  1  0.65740000  0.65740000  0.98200000  1
  O  O115  1  0.84260000  0.65740000  0.48200000  1
  O  O116  1  0.25000000  0.25000000  0.08390000  1
  O  O117  1  0.25000000  0.25000000  0.58390000  1
  O  O118  1  0.75000000  0.75000000  0.91610000  1
  O  O119  1  0.75000000  0.75000000  0.41610000  1
