# generated using pymatgen
data_Si
_symmetry_space_group_name_H-M   'P 1'
_cell_length_a   10.00200000
_cell_length_b   10.00200000
_cell_length_c   34.14100000
_cell_angle_alpha   90.00000000
_cell_angle_beta   90.00000000
_cell_angle_gamma   90.00000000
_symmetry_Int_Tables_number   1
_chemical_formula_structural   Si
_chemical_formula_sum   Si60
_cell_volume   3415.46577656
_cell_formula_units_Z   60
loop_
 _symmetry_equiv_pos_site_id
 _symmetry_equiv_pos_as_xyz
  1  'x, y, z'
loop_
 _atom_site_type_symbol
 _atom_site_label
 _atom_site_symmetry_multiplicity
 _atom_site_fract_x
 _atom_site_fract_y
 _atom_site_fract_z
 _atom_site_occupancy
  Si  Si0  1  0.09850000  0.70290000  0.90320000  1
  Si  Si1  1  0.79710000  0.09850000  0.40320000  1
  Si  Si2  1  0.40150000  0.79710000  0.90320000  1
  Si  Si3  1  0.70290000  0.40150000  0.40320000  1
  Si  Si4  1  0.40150000  0.70290000  0.40320000  1
  Si  Si5  1  0.70290000  0.09850000  0.90320000  1
  Si  Si6  1  0.09850000  0.79710000  0.40320000  1
  Si  Si7  1  0.79710000  0.40150000  0.90320000  1
  Si  Si8  1  0.90150000  0.29710000  0.09680000  1
  Si  Si9  1  0.20290000  0.90150000  0.59680000  1
  Si  Si10  1  0.59850000  0.20290000  0.09680000  1
  Si  Si11  1  0.29710000  0.59850000  0.59680000  1
  Si  Si12  1  0.59850000  0.29710000  0.59680000  1
  Si  Si13  1  0.29710000  0.90150000  0.09680000  1
  Si  Si14  1  0.90150000  0.20290000  0.59680000  1
  Si  Si15  1  0.20290000  0.59850000  0.09680000  1
  Si  Si16  1  0.04550000  0.04550000  0.45690000  1
  Si  Si17  1  0.45450000  0.04550000  0.95690000  1
  Si  Si18  1  0.45450000  0.45450000  0.45690000  1
  Si  Si19  1  0.04550000  0.45450000  0.95690000  1
  Si  Si20  1  0.95450000  0.95450000  0.54310000  1
  Si  Si21  1  0.54550000  0.95450000  0.04310000  1
  Si  Si22  1  0.54550000  0.54550000  0.54310000  1
  Si  Si23  1  0.95450000  0.54550000  0.04310000  1
  Si  Si24  1  0.09460000  0.09460000  0.27230000  1
  Si  Si25  1  0.40540000  0.09460000  0.77230000  1
  Si  Si26  1  0.40540000  0.40540000  0.27230000  1
  Si  Si27  1  0.09460000  0.40540000  0.77230000  1
  Si  Si28  1  0.90540000  0.90540000  0.72770000  1
  Si  Si29  1  0.59460000  0.90540000  0.22770000  1
  Si  Si30  1  0.59460000  0.59460000  0.72770000  1
  Si  Si31  1  0.90540000  0.59460000  0.22770000  1
  Si  Si32  1  0.10840000  0.10840000  0.74580000  1
  Si  Si33  1  0.39160000  0.10840000  0.24580000  1
  Si  Si34  1  0.39160000  0.39160000  0.74580000  1
  Si  Si35  1  0.10840000  0.39160000  0.24580000  1
  Si  Si36  1  0.89160000  0.89160000  0.25420000  1
  Si  Si37  1  0.60840000  0.89160000  0.75420000  1
  Si  Si38  1  0.60840000  0.60840000  0.25420000  1
  Si  Si39  1  0.89160000  0.60840000  0.75420000  1
  Si  Si40  1  0.95540000  0.95540000  0.33610000  1
  Si  Si41  1  0.54460000  0.95540000  0.83610000  1
  Si  Si42  1  0.54460000  0.54460000  0.33610000  1
  Si  Si43  1  0.95540000  0.54460000  0.83610000  1
  Si  Si44  1  0.04460000  0.04460000  0.66390000  1
  Si  Si45  1  0.45540000  0.04460000  0.16390000  1
  Si  Si46  1  0.45540000  0.45540000  0.66390000  1
  Si  Si47  1  0.04460000  0.45540000  0.16390000  1
  Si  Si48  1  0.14540000  0.14540000  0.06500000  1
  Si  Si49  1  0.35460000  0.14540000  0.56500000  1
  Si  Si50  1  0.35460000  0.35460000  0.06500000  1
  Si  Si51  1  0.14540000  0.35460000  0.56500000  1
  Si  Si52  1  0.85460000  0.85460000  0.93500000  1
  Si  Si53  1  0.64540000  0.85460000  0.43500000  1
  Si  Si54  1  0.64540000  0.64540000  0.93500000  1
  Si  Si55  1  0.85460000  0.64540000  0.43500000  1
  Si  Si56  1  0.25000000  0.25000000  0.49040000  1
  Si  Si57  1  0.25000000  0.25000000  0.99040000  1
  Si  Si58  1  0.75000000  0.75000000  0.50960000  1
  Si  Si59  1  0.75000000  0.75000000  0.00960000  1
