# generated using pymatgen
data_O2
_symmetry_space_group_name_H-M   'P 1'
_cell_length_a   12.63200000
_cell_length_b   12.63200000
_cell_length_c   26.18600000
_cell_angle_alpha   90.00000000
_cell_angle_beta   90.00000000
_cell_angle_gamma   90.00000000
_symmetry_Int_Tables_number   1
_chemical_formula_structural   O2
_chemical_formula_sum   O128
_cell_volume   4178.43256486
_cell_formula_units_Z   64
loop_
 _symmetry_equiv_pos_site_id
 _symmetry_equiv_pos_as_xyz
  1  'x, y, z'
loop_
 _atom_site_type_symbol
 _atom_site_label
 _atom_site_symmetry_multiplicity
 _atom_site_fract_x
 _atom_site_fract_y
 _atom_site_fract_z
 _atom_site_occupancy
  O  O0  1  0.83310000  0.83890000  0.05940000  1
  O  O1  1  0.16110000  0.83310000  0.30940000  1
  O  O2  1  0.16690000  0.16110000  0.55940000  1
  O  O3  1  0.83890000  0.16690000  0.80940000  1
  O  O4  1  0.16690000  0.83890000  0.94060000  1
  O  O5  1  0.83890000  0.83310000  0.69060000  1
  O  O6  1  0.83310000  0.16110000  0.44060000  1
  O  O7  1  0.16110000  0.16690000  0.19060000  1
  O  O8  1  0.00000000  0.82660000  0.00000000  1
  O  O9  1  0.17340000  0.00000000  0.25000000  1
  O  O10  1  0.00000000  0.17340000  0.50000000  1
  O  O11  1  0.82660000  0.00000000  0.75000000  1
  O  O12  1  0.02400000  0.84990000  0.09910000  1
  O  O13  1  0.15010000  0.02400000  0.34910000  1
  O  O14  1  0.97600000  0.15010000  0.59910000  1
  O  O15  1  0.84990000  0.97600000  0.84910000  1
  O  O16  1  0.97600000  0.84990000  0.90090000  1
  O  O17  1  0.84990000  0.02400000  0.65090000  1
  O  O18  1  0.02400000  0.15010000  0.40090000  1
  O  O19  1  0.15010000  0.97600000  0.15090000  1
  O  O20  1  0.95400000  0.66950000  0.06210000  1
  O  O21  1  0.33050000  0.95400000  0.31210000  1
  O  O22  1  0.04600000  0.33050000  0.56210000  1
  O  O23  1  0.66950000  0.04600000  0.81210000  1
  O  O24  1  0.04600000  0.66950000  0.93790000  1
  O  O25  1  0.66950000  0.95400000  0.68790000  1
  O  O26  1  0.95400000  0.33050000  0.43790000  1
  O  O27  1  0.33050000  0.04600000  0.18790000  1
  O  O28  1  0.83430000  0.49900000  0.06030000  1
  O  O29  1  0.50100000  0.83430000  0.31030000  1
  O  O30  1  0.16570000  0.50100000  0.56030000  1
  O  O31  1  0.49900000  0.16570000  0.81030000  1
  O  O32  1  0.16570000  0.49900000  0.93970000  1
  O  O33  1  0.49900000  0.83430000  0.68970000  1
  O  O34  1  0.83430000  0.50100000  0.43970000  1
  O  O35  1  0.50100000  0.16570000  0.18970000  1
  O  O36  1  0.00000000  0.51230000  0.00000000  1
  O  O37  1  0.48770000  0.00000000  0.25000000  1
  O  O38  1  0.00000000  0.48770000  0.50000000  1
  O  O39  1  0.51230000  0.00000000  0.75000000  1
  O  O40  1  0.02600000  0.48940000  0.09880000  1
  O  O41  1  0.51060000  0.02600000  0.34880000  1
  O  O42  1  0.97400000  0.51060000  0.59880000  1
  O  O43  1  0.48940000  0.97400000  0.84880000  1
  O  O44  1  0.97400000  0.48940000  0.90120000  1
  O  O45  1  0.48940000  0.02600000  0.65120000  1
  O  O46  1  0.02600000  0.51060000  0.40120000  1
  O  O47  1  0.51060000  0.97400000  0.15120000  1
  O  O48  1  0.64180000  0.85490000  0.09870000  1
  O  O49  1  0.14510000  0.64180000  0.34870000  1
  O  O50  1  0.35820000  0.14510000  0.59870000  1
  O  O51  1  0.85490000  0.35820000  0.84870000  1
  O  O52  1  0.35820000  0.85490000  0.90130000  1
  O  O53  1  0.85490000  0.64180000  0.65130000  1
  O  O54  1  0.64180000  0.14510000  0.40130000  1
  O  O55  1  0.14510000  0.35820000  0.15130000  1
  O  O56  1  0.71810000  0.66880000  0.07380000  1
  O  O57  1  0.33120000  0.71810000  0.32380000  1
  O  O58  1  0.28190000  0.33120000  0.57380000  1
  O  O59  1  0.66880000  0.28190000  0.82380000  1
  O  O60  1  0.28190000  0.66880000  0.92620000  1
  O  O61  1  0.66880000  0.71810000  0.67620000  1
  O  O62  1  0.71810000  0.33120000  0.42620000  1
  O  O63  1  0.33120000  0.28190000  0.17620000  1
  O  O64  1  0.66580000  0.80340000  0.00190000  1
  O  O65  1  0.19660000  0.66580000  0.25190000  1
  O  O66  1  0.33420000  0.19660000  0.50190000  1
  O  O67  1  0.80340000  0.33420000  0.75190000  1
  O  O68  1  0.33420000  0.80340000  0.99810000  1
  O  O69  1  0.80340000  0.66580000  0.74810000  1
  O  O70  1  0.66580000  0.19660000  0.49810000  1
  O  O71  1  0.19660000  0.33420000  0.24810000  1
  O  O72  1  0.64340000  0.48380000  0.10010000  1
  O  O73  1  0.51620000  0.64340000  0.35010000  1
  O  O74  1  0.35660000  0.51620000  0.60010000  1
  O  O75  1  0.48380000  0.35660000  0.85010000  1
  O  O76  1  0.35660000  0.48380000  0.89990000  1
  O  O77  1  0.48380000  0.64340000  0.64990000  1
  O  O78  1  0.64340000  0.51620000  0.39990000  1
  O  O79  1  0.51620000  0.35660000  0.14990000  1
  O  O80  1  0.66620000  0.52980000  0.00290000  1
  O  O81  1  0.47020000  0.66620000  0.25290000  1
  O  O82  1  0.33380000  0.47020000  0.50290000  1
  O  O83  1  0.52980000  0.33380000  0.75290000  1
  O  O84  1  0.33380000  0.52980000  0.99710000  1
  O  O85  1  0.52980000  0.66620000  0.74710000  1
  O  O86  1  0.66620000  0.47020000  0.49710000  1
  O  O87  1  0.47020000  0.33380000  0.24710000  1
  O  O88  1  0.43690000  0.84040000  0.08320000  1
  O  O89  1  0.15960000  0.43690000  0.33320000  1
  O  O90  1  0.56310000  0.15960000  0.58320000  1
  O  O91  1  0.84040000  0.56310000  0.83320000  1
  O  O92  1  0.56310000  0.84040000  0.91680000  1
  O  O93  1  0.84040000  0.43690000  0.66680000  1
  O  O94  1  0.43690000  0.15960000  0.41680000  1
  O  O95  1  0.15960000  0.56310000  0.16680000  1
  O  O96  1  0.32800000  0.66440000  0.07330000  1
  O  O97  1  0.33560000  0.32800000  0.32330000  1
  O  O98  1  0.67200000  0.33560000  0.57330000  1
  O  O99  1  0.66440000  0.67200000  0.82330000  1
  O  O100  1  0.67200000  0.66440000  0.92670000  1
  O  O101  1  0.66440000  0.32800000  0.67670000  1
  O  O102  1  0.32800000  0.33560000  0.42670000  1
  O  O103  1  0.33560000  0.67200000  0.17670000  1
  O  O104  1  0.22900000  0.84690000  0.08200000  1
  O  O105  1  0.15310000  0.22900000  0.33200000  1
  O  O106  1  0.77100000  0.15310000  0.58200000  1
  O  O107  1  0.84690000  0.77100000  0.83200000  1
  O  O108  1  0.77100000  0.84690000  0.91800000  1
  O  O109  1  0.84690000  0.22900000  0.66800000  1
  O  O110  1  0.22900000  0.15310000  0.41800000  1
  O  O111  1  0.15310000  0.77100000  0.16800000  1
  O  O112  1  0.43880000  0.48850000  0.08140000  1
  O  O113  1  0.51150000  0.43880000  0.33140000  1
  O  O114  1  0.56120000  0.51150000  0.58140000  1
  O  O115  1  0.48850000  0.56120000  0.83140000  1
  O  O116  1  0.56120000  0.48850000  0.91860000  1
  O  O117  1  0.48850000  0.43880000  0.66860000  1
  O  O118  1  0.43880000  0.51150000  0.41860000  1
  O  O119  1  0.51150000  0.56120000  0.16860000  1
  O  O120  1  0.23090000  0.48090000  0.08120000  1
  O  O121  1  0.51910000  0.23090000  0.33120000  1
  O  O122  1  0.76910000  0.51910000  0.58120000  1
  O  O123  1  0.48090000  0.76910000  0.83120000  1
  O  O124  1  0.76910000  0.48090000  0.91880000  1
  O  O125  1  0.48090000  0.23090000  0.66880000  1
  O  O126  1  0.23090000  0.51910000  0.41880000  1
  O  O127  1  0.51910000  0.76910000  0.16880000  1
