# generated using pymatgen
data_Si
_symmetry_space_group_name_H-M   'P 1'
_cell_length_a   12.63200000
_cell_length_b   12.63200000
_cell_length_c   26.18600000
_cell_angle_alpha   90.00000000
_cell_angle_beta   90.00000000
_cell_angle_gamma   90.00000000
_symmetry_Int_Tables_number   1
_chemical_formula_structural   Si
_chemical_formula_sum   Si64
_cell_volume   4178.43256486
_cell_formula_units_Z   64
loop_
 _symmetry_equiv_pos_site_id
 _symmetry_equiv_pos_as_xyz
  1  'x, y, z'
loop_
 _atom_site_type_symbol
 _atom_site_label
 _atom_site_symmetry_multiplicity
 _atom_site_fract_x
 _atom_site_fract_y
 _atom_site_fract_z
 _atom_site_occupancy
  Si  Si0  1  0.95290000  0.79600000  0.05520000  1
  Si  Si1  1  0.20400000  0.95290000  0.30520000  1
  Si  Si2  1  0.04710000  0.20400000  0.55520000  1
  Si  Si3  1  0.79600000  0.04710000  0.80520000  1
  Si  Si4  1  0.04710000  0.79600000  0.94480000  1
  Si  Si5  1  0.79600000  0.95290000  0.69480000  1
  Si  Si6  1  0.95290000  0.20400000  0.44480000  1
  Si  Si7  1  0.20400000  0.04710000  0.19480000  1
  Si  Si8  1  0.95360000  0.54290000  0.05530000  1
  Si  Si9  1  0.45710000  0.95360000  0.30530000  1
  Si  Si10  1  0.04640000  0.45710000  0.55530000  1
  Si  Si11  1  0.54290000  0.04640000  0.80530000  1
  Si  Si12  1  0.04640000  0.54290000  0.94470000  1
  Si  Si13  1  0.54290000  0.95360000  0.69470000  1
  Si  Si14  1  0.95360000  0.45710000  0.44470000  1
  Si  Si15  1  0.45710000  0.04640000  0.19470000  1
  Si  Si16  1  0.71460000  0.79210000  0.05840000  1
  Si  Si17  1  0.20790000  0.71460000  0.30840000  1
  Si  Si18  1  0.28540000  0.20790000  0.55840000  1
  Si  Si19  1  0.79210000  0.28540000  0.80840000  1
  Si  Si20  1  0.28540000  0.79210000  0.94160000  1
  Si  Si21  1  0.79210000  0.71460000  0.69160000  1
  Si  Si22  1  0.71460000  0.20790000  0.44160000  1
  Si  Si23  1  0.20790000  0.28540000  0.19160000  1
  Si  Si24  1  0.71550000  0.54510000  0.05900000  1
  Si  Si25  1  0.45490000  0.71550000  0.30900000  1
  Si  Si26  1  0.28450000  0.45490000  0.55900000  1
  Si  Si27  1  0.54510000  0.28450000  0.80900000  1
  Si  Si28  1  0.28450000  0.54510000  0.94100000  1
  Si  Si29  1  0.54510000  0.71550000  0.69100000  1
  Si  Si30  1  0.71550000  0.45490000  0.44100000  1
  Si  Si31  1  0.45490000  0.28450000  0.19100000  1
  Si  Si32  1  0.33180000  0.78840000  0.05910000  1
  Si  Si33  1  0.21160000  0.33180000  0.30910000  1
  Si  Si34  1  0.66820000  0.21160000  0.55910000  1
  Si  Si35  1  0.78840000  0.66820000  0.80910000  1
  Si  Si36  1  0.66820000  0.78840000  0.94090000  1
  Si  Si37  1  0.78840000  0.33180000  0.69090000  1
  Si  Si38  1  0.33180000  0.21160000  0.44090000  1
  Si  Si39  1  0.21160000  0.66820000  0.19090000  1
  Si  Si40  1  0.33290000  0.54090000  0.05840000  1
  Si  Si41  1  0.45910000  0.33290000  0.30840000  1
  Si  Si42  1  0.66710000  0.45910000  0.55840000  1
  Si  Si43  1  0.54090000  0.66710000  0.80840000  1
  Si  Si44  1  0.66710000  0.54090000  0.94160000  1
  Si  Si45  1  0.54090000  0.33290000  0.69160000  1
  Si  Si46  1  0.33290000  0.45910000  0.44160000  1
  Si  Si47  1  0.45910000  0.66710000  0.19160000  1
  Si  Si48  1  0.52720000  0.85940000  0.12560000  1
  Si  Si49  1  0.14060000  0.52720000  0.37560000  1
  Si  Si50  1  0.47280000  0.14060000  0.62560000  1
  Si  Si51  1  0.85940000  0.47280000  0.87560000  1
  Si  Si52  1  0.47280000  0.85940000  0.87440000  1
  Si  Si53  1  0.85940000  0.52720000  0.62440000  1
  Si  Si54  1  0.52720000  0.14060000  0.37440000  1
  Si  Si55  1  0.14060000  0.47280000  0.12440000  1
  Si  Si56  1  0.52720000  0.47280000  0.12500000  1
  Si  Si57  1  0.52720000  0.52720000  0.37500000  1
  Si  Si58  1  0.47280000  0.52720000  0.62500000  1
  Si  Si59  1  0.47280000  0.47280000  0.87500000  1
  Si  Si60  1  0.13910000  0.86090000  0.12500000  1
  Si  Si61  1  0.13910000  0.13910000  0.37500000  1
  Si  Si62  1  0.86090000  0.13910000  0.62500000  1
  Si  Si63  1  0.86090000  0.86090000  0.87500000  1
