# generated using pymatgen
data_SiO4
_symmetry_space_group_name_H-M   'P 1'
_cell_length_a   12.63200000
_cell_length_b   12.63200000
_cell_length_c   26.18600000
_cell_angle_alpha   90.00000000
_cell_angle_beta   90.00000000
_cell_angle_gamma   90.00000000
_symmetry_Int_Tables_number   1
_chemical_formula_structural   SiO4
_chemical_formula_sum   'Si1 O4'
_cell_volume   4178.43256486
_cell_formula_units_Z   1
loop_
 _symmetry_equiv_pos_site_id
 _symmetry_equiv_pos_as_xyz
  1  'x, y, z'
loop_
 _atom_site_type_symbol
 _atom_site_label
 _atom_site_symmetry_multiplicity
 _atom_site_fract_x
 _atom_site_fract_y
 _atom_site_fract_z
 _atom_site_occupancy
  Si  Si0  1  0.71550000  0.54510000  0.05900000  1
  O  O1  1  0.83430000  0.49900000  0.06030000  1
  O  O2  1  0.71810000  0.66880000  0.07380000  1
  O  O3  1  0.64340000  0.48380000  0.10010000  1
  O  O4  1  0.66620000  0.52980000  0.00290000  1
