# generated using pymatgen
data_SiO4
_symmetry_space_group_name_H-M   'P 1'
_cell_length_a   17.19100000
_cell_length_b   17.19100000
_cell_length_c   41.03000000
_cell_angle_alpha   90.00000000
_cell_angle_beta   90.00000000
_cell_angle_gamma   120.00000000
_symmetry_Int_Tables_number   1
_chemical_formula_structural   SiO4
_chemical_formula_sum   'Si1 O4'
_cell_volume   10501.09117681
_cell_formula_units_Z   1
loop_
 _symmetry_equiv_pos_site_id
 _symmetry_equiv_pos_as_xyz
  1  'x, y, z'
loop_
 _atom_site_type_symbol
 _atom_site_label
 _atom_site_symmetry_multiplicity
 _atom_site_fract_x
 _atom_site_fract_y
 _atom_site_fract_z
 _atom_site_occupancy
  Si  Si0  1  0.69440000  0.75760000  0.97090000  1
  O  O1  1  0.59050000  0.69820000  0.98140000  1
  O  O2  1  0.71200000  0.71490000  0.93870000  1
  O  O3  1  0.75710000  0.75710000  1.00000000  1
  O  O4  1  0.71820000  0.85910000  0.96360000  1
