# generated using pymatgen
data_Si
_symmetry_space_group_name_H-M   'P 1'
_cell_length_a   17.19100000
_cell_length_b   17.19100000
_cell_length_c   41.03000000
_cell_angle_alpha   90.00000000
_cell_angle_beta   90.00000000
_cell_angle_gamma   120.00000000
_symmetry_Int_Tables_number   1
_chemical_formula_structural   Si
_chemical_formula_sum   Si144
_cell_volume   10501.09117681
_cell_formula_units_Z   144
loop_
 _symmetry_equiv_pos_site_id
 _symmetry_equiv_pos_as_xyz
  1  'x, y, z'
loop_
 _atom_site_type_symbol
 _atom_site_label
 _atom_site_symmetry_multiplicity
 _atom_site_fract_x
 _atom_site_fract_y
 _atom_site_fract_z
 _atom_site_occupancy
  Si  Si0  1  0.15500000  0.48780000  0.12940000  1
  Si  Si1  1  0.82166667  0.82113333  0.46273333  1
  Si  Si2  1  0.48833333  0.15446667  0.79606667  1
  Si  Si3  1  0.51220000  0.66720000  0.12940000  1
  Si  Si4  1  0.17886667  0.00053333  0.46273333  1
  Si  Si5  1  0.84553333  0.33386667  0.79606667  1
  Si  Si6  1  0.33280000  0.84500000  0.12940000  1
  Si  Si7  1  0.99946667  0.17833333  0.46273333  1
  Si  Si8  1  0.66613333  0.51166667  0.79606667  1
  Si  Si9  1  0.51220000  0.84500000  0.12940000  1
  Si  Si10  1  0.17886667  0.17833333  0.46273333  1
  Si  Si11  1  0.84553333  0.51166667  0.79606667  1
  Si  Si12  1  0.33280000  0.48780000  0.12940000  1
  Si  Si13  1  0.99946667  0.82113333  0.46273333  1
  Si  Si14  1  0.66613333  0.15446667  0.79606667  1
  Si  Si15  1  0.15500000  0.66720000  0.12940000  1
  Si  Si16  1  0.82166667  0.00053333  0.46273333  1
  Si  Si17  1  0.48833333  0.33386667  0.79606667  1
  Si  Si18  1  0.84500000  0.51220000  0.87060000  1
  Si  Si19  1  0.51166667  0.84553333  0.20393333  1
  Si  Si20  1  0.17833333  0.17886667  0.53726667  1
  Si  Si21  1  0.48780000  0.33280000  0.87060000  1
  Si  Si22  1  0.15446667  0.66613333  0.20393333  1
  Si  Si23  1  0.82113333  0.99946667  0.53726667  1
  Si  Si24  1  0.66720000  0.15500000  0.87060000  1
  Si  Si25  1  0.33386667  0.48833333  0.20393333  1
  Si  Si26  1  0.00053333  0.82166667  0.53726667  1
  Si  Si27  1  0.48780000  0.15500000  0.87060000  1
  Si  Si28  1  0.15446667  0.48833333  0.20393333  1
  Si  Si29  1  0.82113333  0.82166667  0.53726667  1
  Si  Si30  1  0.66720000  0.51220000  0.87060000  1
  Si  Si31  1  0.33386667  0.84553333  0.20393333  1
  Si  Si32  1  0.00053333  0.17886667  0.53726667  1
  Si  Si33  1  0.84500000  0.33280000  0.87060000  1
  Si  Si34  1  0.51166667  0.66613333  0.20393333  1
  Si  Si35  1  0.17833333  0.99946667  0.53726667  1
  Si  Si36  1  0.93680000  0.24240000  0.02910000  1
  Si  Si37  1  0.60346667  0.57573333  0.36243333  1
  Si  Si38  1  0.27013333  0.90906667  0.69576667  1
  Si  Si39  1  0.75760000  0.69440000  0.02910000  1
  Si  Si40  1  0.42426667  0.02773333  0.36243333  1
  Si  Si41  1  0.09093333  0.36106667  0.69576667  1
  Si  Si42  1  0.30560000  0.06320000  0.02910000  1
  Si  Si43  1  0.97226667  0.39653333  0.36243333  1
  Si  Si44  1  0.63893333  0.72986667  0.69576667  1
  Si  Si45  1  0.75760000  0.06320000  0.02910000  1
  Si  Si46  1  0.42426667  0.39653333  0.36243333  1
  Si  Si47  1  0.09093333  0.72986667  0.69576667  1
  Si  Si48  1  0.30560000  0.24240000  0.02910000  1
  Si  Si49  1  0.97226667  0.57573333  0.36243333  1
  Si  Si50  1  0.63893333  0.90906667  0.69576667  1
  Si  Si51  1  0.93680000  0.69440000  0.02910000  1
  Si  Si52  1  0.60346667  0.02773333  0.36243333  1
  Si  Si53  1  0.27013333  0.36106667  0.69576667  1
  Si  Si54  1  0.06320000  0.75760000  0.97090000  1
  Si  Si55  1  0.72986667  0.09093333  0.30423333  1
  Si  Si56  1  0.39653333  0.42426667  0.63756667  1
  Si  Si57  1  0.24240000  0.30560000  0.97090000  1
  Si  Si58  1  0.90906667  0.63893333  0.30423333  1
  Si  Si59  1  0.57573333  0.97226667  0.63756667  1
  Si  Si60  1  0.69440000  0.93680000  0.97090000  1
  Si  Si61  1  0.36106667  0.27013333  0.30423333  1
  Si  Si62  1  0.02773333  0.60346667  0.63756667  1
  Si  Si63  1  0.24240000  0.93680000  0.97090000  1
  Si  Si64  1  0.90906667  0.27013333  0.30423333  1
  Si  Si65  1  0.57573333  0.60346667  0.63756667  1
  Si  Si66  1  0.69440000  0.75760000  0.97090000  1
  Si  Si67  1  0.36106667  0.09093333  0.30423333  1
  Si  Si68  1  0.02773333  0.42426667  0.63756667  1
  Si  Si69  1  0.06320000  0.30560000  0.97090000  1
  Si  Si70  1  0.72986667  0.63893333  0.30423333  1
  Si  Si71  1  0.39653333  0.97226667  0.63756667  1
  Si  Si72  1  0.63090000  0.90490000  0.06910000  1
  Si  Si73  1  0.29756667  0.23823333  0.40243333  1
  Si  Si74  1  0.96423333  0.57156667  0.73576667  1
  Si  Si75  1  0.09510000  0.72600000  0.06910000  1
  Si  Si76  1  0.76176667  0.05933333  0.40243333  1
  Si  Si77  1  0.42843333  0.39266667  0.73576667  1
  Si  Si78  1  0.27400000  0.36910000  0.06910000  1
  Si  Si79  1  0.94066667  0.70243333  0.40243333  1
  Si  Si80  1  0.60733333  0.03576667  0.73576667  1
  Si  Si81  1  0.09510000  0.36910000  0.06910000  1
  Si  Si82  1  0.76176667  0.70243333  0.40243333  1
  Si  Si83  1  0.42843333  0.03576667  0.73576667  1
  Si  Si84  1  0.27400000  0.90490000  0.06910000  1
  Si  Si85  1  0.94066667  0.23823333  0.40243333  1
  Si  Si86  1  0.60733333  0.57156667  0.73576667  1
  Si  Si87  1  0.63090000  0.72600000  0.06910000  1
  Si  Si88  1  0.29756667  0.05933333  0.40243333  1
  Si  Si89  1  0.96423333  0.39266667  0.73576667  1
  Si  Si90  1  0.36910000  0.09510000  0.93090000  1
  Si  Si91  1  0.03576667  0.42843333  0.26423333  1
  Si  Si92  1  0.70243333  0.76176667  0.59756667  1
  Si  Si93  1  0.90490000  0.27400000  0.93090000  1
  Si  Si94  1  0.57156667  0.60733333  0.26423333  1
  Si  Si95  1  0.23823333  0.94066667  0.59756667  1
  Si  Si96  1  0.72600000  0.63090000  0.93090000  1
  Si  Si97  1  0.39266667  0.96423333  0.26423333  1
  Si  Si98  1  0.05933333  0.29756667  0.59756667  1
  Si  Si99  1  0.90490000  0.63090000  0.93090000  1
  Si  Si100  1  0.57156667  0.96423333  0.26423333  1
  Si  Si101  1  0.23823333  0.29756667  0.59756667  1
  Si  Si102  1  0.72600000  0.09510000  0.93090000  1
  Si  Si103  1  0.39266667  0.42843333  0.26423333  1
  Si  Si104  1  0.05933333  0.76176667  0.59756667  1
  Si  Si105  1  0.36910000  0.27400000  0.93090000  1
  Si  Si106  1  0.03576667  0.60733333  0.26423333  1
  Si  Si107  1  0.70243333  0.94066667  0.59756667  1
  Si  Si108  1  0.84410000  0.51200000  0.99190000  1
  Si  Si109  1  0.51076667  0.84533333  0.32523333  1
  Si  Si110  1  0.17743333  0.17866667  0.65856667  1
  Si  Si111  1  0.48800000  0.33210000  0.99190000  1
  Si  Si112  1  0.15466667  0.66543333  0.32523333  1
  Si  Si113  1  0.82133333  0.99876667  0.65856667  1
  Si  Si114  1  0.66790000  0.15590000  0.99190000  1
  Si  Si115  1  0.33456667  0.48923333  0.32523333  1
  Si  Si116  1  0.00123333  0.82256667  0.65856667  1
  Si  Si117  1  0.48800000  0.15590000  0.99190000  1
  Si  Si118  1  0.15466667  0.48923333  0.32523333  1
  Si  Si119  1  0.82133333  0.82256667  0.65856667  1
  Si  Si120  1  0.66790000  0.51200000  0.99190000  1
  Si  Si121  1  0.33456667  0.84533333  0.32523333  1
  Si  Si122  1  0.00123333  0.17866667  0.65856667  1
  Si  Si123  1  0.84410000  0.33210000  0.99190000  1
  Si  Si124  1  0.51076667  0.66543333  0.32523333  1
  Si  Si125  1  0.17743333  0.99876667  0.65856667  1
  Si  Si126  1  0.15590000  0.48800000  0.00810000  1
  Si  Si127  1  0.82256667  0.82133333  0.34143333  1
  Si  Si128  1  0.48923333  0.15466667  0.67476667  1
  Si  Si129  1  0.51200000  0.66790000  0.00810000  1
  Si  Si130  1  0.17866667  0.00123333  0.34143333  1
  Si  Si131  1  0.84533333  0.33456667  0.67476667  1
  Si  Si132  1  0.33210000  0.84410000  0.00810000  1
  Si  Si133  1  0.99876667  0.17743333  0.34143333  1
  Si  Si134  1  0.66543333  0.51076667  0.67476667  1
  Si  Si135  1  0.51200000  0.84410000  0.00810000  1
  Si  Si136  1  0.17866667  0.17743333  0.34143333  1
  Si  Si137  1  0.84533333  0.51076667  0.67476667  1
  Si  Si138  1  0.33210000  0.48800000  0.00810000  1
  Si  Si139  1  0.99876667  0.82133333  0.34143333  1
  Si  Si140  1  0.66543333  0.15466667  0.67476667  1
  Si  Si141  1  0.15590000  0.66790000  0.00810000  1
  Si  Si142  1  0.82256667  0.00123333  0.34143333  1
  Si  Si143  1  0.48923333  0.33456667  0.67476667  1
