# generated using pymatgen
data_O2
_symmetry_space_group_name_H-M   'P 1'
_cell_length_a   17.19100000
_cell_length_b   17.19100000
_cell_length_c   41.03000000
_cell_angle_alpha   90.00000000
_cell_angle_beta   90.00000000
_cell_angle_gamma   120.00000000
_symmetry_Int_Tables_number   1
_chemical_formula_structural   O2
_chemical_formula_sum   O288
_cell_volume   10501.09117681
_cell_formula_units_Z   144
loop_
 _symmetry_equiv_pos_site_id
 _symmetry_equiv_pos_as_xyz
  1  'x, y, z'
loop_
 _atom_site_type_symbol
 _atom_site_label
 _atom_site_symmetry_multiplicity
 _atom_site_fract_x
 _atom_site_fract_y
 _atom_site_fract_z
 _atom_site_occupancy
  O  O0  1  0.13820000  0.56910000  0.11990000  1
  O  O1  1  0.80486667  0.90243333  0.45323333  1
  O  O2  1  0.47153333  0.23576667  0.78656667  1
  O  O3  1  0.43090000  0.56910000  0.11990000  1
  O  O4  1  0.09756667  0.90243333  0.45323333  1
  O  O5  1  0.76423333  0.23576667  0.78656667  1
  O  O6  1  0.43090000  0.86180000  0.11990000  1
  O  O7  1  0.09756667  0.19513333  0.45323333  1
  O  O8  1  0.76423333  0.52846667  0.78656667  1
  O  O9  1  0.86180000  0.43090000  0.88010000  1
  O  O10  1  0.52846667  0.76423333  0.21343333  1
  O  O11  1  0.19513333  0.09756667  0.54676667  1
  O  O12  1  0.56910000  0.43090000  0.88010000  1
  O  O13  1  0.23576667  0.76423333  0.21343333  1
  O  O14  1  0.90243333  0.09756667  0.54676667  1
  O  O15  1  0.56910000  0.13820000  0.88010000  1
  O  O16  1  0.23576667  0.47153333  0.21343333  1
  O  O17  1  0.90243333  0.80486667  0.54676667  1
  O  O18  1  0.26000000  0.51990000  0.12540000  1
  O  O19  1  0.92666667  0.85323333  0.45873333  1
  O  O20  1  0.59333333  0.18656667  0.79206667  1
  O  O21  1  0.48010000  0.74010000  0.12540000  1
  O  O22  1  0.14676667  0.07343333  0.45873333  1
  O  O23  1  0.81343333  0.40676667  0.79206667  1
  O  O24  1  0.25990000  0.74000000  0.12540000  1
  O  O25  1  0.92656667  0.07333333  0.45873333  1
  O  O26  1  0.59323333  0.40666667  0.79206667  1
  O  O27  1  0.74000000  0.48010000  0.87460000  1
  O  O28  1  0.40666667  0.81343333  0.20793333  1
  O  O29  1  0.07333333  0.14676667  0.54126667  1
  O  O30  1  0.51990000  0.25990000  0.87460000  1
  O  O31  1  0.18656667  0.59323333  0.20793333  1
  O  O32  1  0.85323333  0.92656667  0.54126667  1
  O  O33  1  0.74010000  0.26000000  0.87460000  1
  O  O34  1  0.40676667  0.59333333  0.20793333  1
  O  O35  1  0.07343333  0.92666667  0.54126667  1
  O  O36  1  0.09680000  0.40370000  0.10570000  1
  O  O37  1  0.76346667  0.73703333  0.43903333  1
  O  O38  1  0.43013333  0.07036667  0.77236667  1
  O  O39  1  0.59630000  0.69310000  0.10570000  1
  O  O40  1  0.26296667  0.02643333  0.43903333  1
  O  O41  1  0.92963333  0.35976667  0.77236667  1
  O  O42  1  0.30690000  0.90320000  0.10570000  1
  O  O43  1  0.97356667  0.23653333  0.43903333  1
  O  O44  1  0.64023333  0.56986667  0.77236667  1
  O  O45  1  0.59630000  0.90320000  0.10570000  1
  O  O46  1  0.26296667  0.23653333  0.43903333  1
  O  O47  1  0.92963333  0.56986667  0.77236667  1
  O  O48  1  0.30690000  0.40370000  0.10570000  1
  O  O49  1  0.97356667  0.73703333  0.43903333  1
  O  O50  1  0.64023333  0.07036667  0.77236667  1
  O  O51  1  0.09680000  0.69310000  0.10570000  1
  O  O52  1  0.76346667  0.02643333  0.43903333  1
  O  O53  1  0.43013333  0.35976667  0.77236667  1
  O  O54  1  0.90320000  0.59630000  0.89430000  1
  O  O55  1  0.56986667  0.92963333  0.22763333  1
  O  O56  1  0.23653333  0.26296667  0.56096667  1
  O  O57  1  0.40370000  0.30690000  0.89430000  1
  O  O58  1  0.07036667  0.64023333  0.22763333  1
  O  O59  1  0.73703333  0.97356667  0.56096667  1
  O  O60  1  0.69310000  0.09680000  0.89430000  1
  O  O61  1  0.35976667  0.43013333  0.22763333  1
  O  O62  1  0.02643333  0.76346667  0.56096667  1
  O  O63  1  0.40370000  0.09680000  0.89430000  1
  O  O64  1  0.07036667  0.43013333  0.22763333  1
  O  O65  1  0.73703333  0.76346667  0.56096667  1
  O  O66  1  0.69310000  0.59630000  0.89430000  1
  O  O67  1  0.35976667  0.92963333  0.22763333  1
  O  O68  1  0.02643333  0.26296667  0.56096667  1
  O  O69  1  0.90320000  0.30690000  0.89430000  1
  O  O70  1  0.56986667  0.64023333  0.22763333  1
  O  O71  1  0.23653333  0.97356667  0.56096667  1
  O  O72  1  0.12520000  0.45850000  0.16670000  1
  O  O73  1  0.79186667  0.79183333  0.50003333  1
  O  O74  1  0.45853333  0.12516667  0.83336667  1
  O  O75  1  0.54150000  0.66670000  0.16670000  1
  O  O76  1  0.20816667  0.00003333  0.50003333  1
  O  O77  1  0.87483333  0.33336667  0.83336667  1
  O  O78  1  0.33330000  0.87480000  0.16670000  1
  O  O79  1  0.99996667  0.20813333  0.50003333  1
  O  O80  1  0.66663333  0.54146667  0.83336667  1
  O  O81  1  0.54150000  0.87480000  0.16670000  1
  O  O82  1  0.20816667  0.20813333  0.50003333  1
  O  O83  1  0.87483333  0.54146667  0.83336667  1
  O  O84  1  0.33330000  0.45850000  0.16670000  1
  O  O85  1  0.99996667  0.79183333  0.50003333  1
  O  O86  1  0.66663333  0.12516667  0.83336667  1
  O  O87  1  0.12520000  0.66670000  0.16670000  1
  O  O88  1  0.79186667  0.00003333  0.50003333  1
  O  O89  1  0.45853333  0.33336667  0.83336667  1
  O  O90  1  0.86280000  0.43140000  0.00040000  1
  O  O91  1  0.52946667  0.76473333  0.33373333  1
  O  O92  1  0.19613333  0.09806667  0.66706667  1
  O  O93  1  0.56860000  0.43140000  0.00040000  1
  O  O94  1  0.23526667  0.76473333  0.33373333  1
  O  O95  1  0.90193333  0.09806667  0.66706667  1
  O  O96  1  0.56860000  0.13720000  0.00040000  1
  O  O97  1  0.23526667  0.47053333  0.33373333  1
  O  O98  1  0.90193333  0.80386667  0.66706667  1
  O  O99  1  0.13720000  0.56860000  0.99960000  1
  O  O100  1  0.80386667  0.90193333  0.33293333  1
  O  O101  1  0.47053333  0.23526667  0.66626667  1
  O  O102  1  0.43140000  0.56860000  0.99960000  1
  O  O103  1  0.09806667  0.90193333  0.33293333  1
  O  O104  1  0.76473333  0.23526667  0.66626667  1
  O  O105  1  0.43140000  0.86280000  0.99960000  1
  O  O106  1  0.09806667  0.19613333  0.33293333  1
  O  O107  1  0.76473333  0.52946667  0.66626667  1
  O  O108  1  0.88300000  0.55110000  0.95630000  1
  O  O109  1  0.54966667  0.88443333  0.28963333  1
  O  O110  1  0.21633333  0.21776667  0.62296667  1
  O  O111  1  0.44890000  0.33190000  0.95630000  1
  O  O112  1  0.11556667  0.66523333  0.28963333  1
  O  O113  1  0.78223333  0.99856667  0.62296667  1
  O  O114  1  0.66810000  0.11700000  0.95630000  1
  O  O115  1  0.33476667  0.45033333  0.28963333  1
  O  O116  1  0.00143333  0.78366667  0.62296667  1
  O  O117  1  0.44890000  0.11700000  0.95630000  1
  O  O118  1  0.11556667  0.45033333  0.28963333  1
  O  O119  1  0.78223333  0.78366667  0.62296667  1
  O  O120  1  0.66810000  0.55110000  0.95630000  1
  O  O121  1  0.33476667  0.88443333  0.28963333  1
  O  O122  1  0.00143333  0.21776667  0.62296667  1
  O  O123  1  0.88300000  0.33190000  0.95630000  1
  O  O124  1  0.54966667  0.66523333  0.28963333  1
  O  O125  1  0.21633333  0.99856667  0.62296667  1
  O  O126  1  0.11700000  0.44890000  0.04370000  1
  O  O127  1  0.78366667  0.78223333  0.37703333  1
  O  O128  1  0.45033333  0.11556667  0.71036667  1
  O  O129  1  0.55110000  0.66810000  0.04370000  1
  O  O130  1  0.21776667  0.00143333  0.37703333  1
  O  O131  1  0.88443333  0.33476667  0.71036667  1
  O  O132  1  0.33190000  0.88300000  0.04370000  1
  O  O133  1  0.99856667  0.21633333  0.37703333  1
  O  O134  1  0.66523333  0.54966667  0.71036667  1
  O  O135  1  0.55110000  0.88300000  0.04370000  1
  O  O136  1  0.21776667  0.21633333  0.37703333  1
  O  O137  1  0.88443333  0.54966667  0.71036667  1
  O  O138  1  0.33190000  0.44890000  0.04370000  1
  O  O139  1  0.99856667  0.78223333  0.37703333  1
  O  O140  1  0.66523333  0.11556667  0.71036667  1
  O  O141  1  0.11700000  0.66810000  0.04370000  1
  O  O142  1  0.78366667  0.00143333  0.37703333  1
  O  O143  1  0.45033333  0.33476667  0.71036667  1
  O  O144  1  0.73750000  0.47500000  0.99250000  1
  O  O145  1  0.40416667  0.80833333  0.32583333  1
  O  O146  1  0.07083333  0.14166667  0.65916667  1
  O  O147  1  0.52500000  0.26250000  0.99250000  1
  O  O148  1  0.19166667  0.59583333  0.32583333  1
  O  O149  1  0.85833333  0.92916667  0.65916667  1
  O  O150  1  0.73750000  0.26250000  0.99250000  1
  O  O151  1  0.40416667  0.59583333  0.32583333  1
  O  O152  1  0.07083333  0.92916667  0.65916667  1
  O  O153  1  0.26250000  0.52500000  0.00750000  1
  O  O154  1  0.92916667  0.85833333  0.34083333  1
  O  O155  1  0.59583333  0.19166667  0.67416667  1
  O  O156  1  0.47500000  0.73750000  0.00750000  1
  O  O157  1  0.14166667  0.07083333  0.34083333  1
  O  O158  1  0.80833333  0.40416667  0.67416667  1
  O  O159  1  0.26250000  0.73750000  0.00750000  1
  O  O160  1  0.92916667  0.07083333  0.34083333  1
  O  O161  1  0.59583333  0.40416667  0.67416667  1
  O  O162  1  0.89230000  0.59050000  0.01860000  1
  O  O163  1  0.55896667  0.92383333  0.35193333  1
  O  O164  1  0.22563333  0.25716667  0.68526667  1
  O  O165  1  0.40950000  0.30180000  0.01860000  1
  O  O166  1  0.07616667  0.63513333  0.35193333  1
  O  O167  1  0.74283333  0.96846667  0.68526667  1
  O  O168  1  0.69820000  0.10770000  0.01860000  1
  O  O169  1  0.36486667  0.44103333  0.35193333  1
  O  O170  1  0.03153333  0.77436667  0.68526667  1
  O  O171  1  0.40950000  0.10770000  0.01860000  1
  O  O172  1  0.07616667  0.44103333  0.35193333  1
  O  O173  1  0.74283333  0.77436667  0.68526667  1
  O  O174  1  0.69820000  0.59050000  0.01860000  1
  O  O175  1  0.36486667  0.92383333  0.35193333  1
  O  O176  1  0.03153333  0.25716667  0.68526667  1
  O  O177  1  0.89230000  0.30180000  0.01860000  1
  O  O178  1  0.55896667  0.63513333  0.35193333  1
  O  O179  1  0.22563333  0.96846667  0.68526667  1
  O  O180  1  0.10770000  0.40950000  0.98140000  1
  O  O181  1  0.77436667  0.74283333  0.31473333  1
  O  O182  1  0.44103333  0.07616667  0.64806667  1
  O  O183  1  0.59050000  0.69820000  0.98140000  1
  O  O184  1  0.25716667  0.03153333  0.31473333  1
  O  O185  1  0.92383333  0.36486667  0.64806667  1
  O  O186  1  0.30180000  0.89230000  0.98140000  1
  O  O187  1  0.96846667  0.22563333  0.31473333  1
  O  O188  1  0.63513333  0.55896667  0.64806667  1
  O  O189  1  0.59050000  0.89230000  0.98140000  1
  O  O190  1  0.25716667  0.22563333  0.31473333  1
  O  O191  1  0.92383333  0.55896667  0.64806667  1
  O  O192  1  0.30180000  0.40950000  0.98140000  1
  O  O193  1  0.96846667  0.74283333  0.31473333  1
  O  O194  1  0.63513333  0.07616667  0.64806667  1
  O  O195  1  0.10770000  0.69820000  0.98140000  1
  O  O196  1  0.77436667  0.03153333  0.31473333  1
  O  O197  1  0.44103333  0.36486667  0.64806667  1
  O  O198  1  0.99710000  0.28510000  0.06130000  1
  O  O199  1  0.66376667  0.61843333  0.39463333  1
  O  O200  1  0.33043333  0.95176667  0.72796667  1
  O  O201  1  0.71490000  0.71200000  0.06130000  1
  O  O202  1  0.38156667  0.04533333  0.39463333  1
  O  O203  1  0.04823333  0.37866667  0.72796667  1
  O  O204  1  0.28800000  0.00290000  0.06130000  1
  O  O205  1  0.95466667  0.33623333  0.39463333  1
  O  O206  1  0.62133333  0.66956667  0.72796667  1
  O  O207  1  0.71490000  0.00290000  0.06130000  1
  O  O208  1  0.38156667  0.33623333  0.39463333  1
  O  O209  1  0.04823333  0.66956667  0.72796667  1
  O  O210  1  0.28800000  0.28510000  0.06130000  1
  O  O211  1  0.95466667  0.61843333  0.39463333  1
  O  O212  1  0.62133333  0.95176667  0.72796667  1
  O  O213  1  0.99710000  0.71200000  0.06130000  1
  O  O214  1  0.66376667  0.04533333  0.39463333  1
  O  O215  1  0.33043333  0.37866667  0.72796667  1
  O  O216  1  0.00290000  0.71490000  0.93870000  1
  O  O217  1  0.66956667  0.04823333  0.27203333  1
  O  O218  1  0.33623333  0.38156667  0.60536667  1
  O  O219  1  0.28510000  0.28800000  0.93870000  1
  O  O220  1  0.95176667  0.62133333  0.27203333  1
  O  O221  1  0.61843333  0.95466667  0.60536667  1
  O  O222  1  0.71200000  0.99710000  0.93870000  1
  O  O223  1  0.37866667  0.33043333  0.27203333  1
  O  O224  1  0.04533333  0.66376667  0.60536667  1
  O  O225  1  0.28510000  0.99710000  0.93870000  1
  O  O226  1  0.95176667  0.33043333  0.27203333  1
  O  O227  1  0.61843333  0.66376667  0.60536667  1
  O  O228  1  0.71200000  0.71490000  0.93870000  1
  O  O229  1  0.37866667  0.04823333  0.27203333  1
  O  O230  1  0.04533333  0.38156667  0.60536667  1
  O  O231  1  0.00290000  0.28800000  0.93870000  1
  O  O232  1  0.66956667  0.62133333  0.27203333  1
  O  O233  1  0.33623333  0.95466667  0.60536667  1
  O  O234  1  0.00000000  0.24290000  0.00000000  1
  O  O235  1  0.66666667  0.57623333  0.33333333  1
  O  O236  1  0.33333333  0.90956667  0.66666667  1
  O  O237  1  0.75710000  0.75710000  0.00000000  1
  O  O238  1  0.42376667  0.09043333  0.33333333  1
  O  O239  1  0.09043333  0.42376667  0.66666667  1
  O  O240  1  0.24290000  0.00000000  0.00000000  1
  O  O241  1  0.90956667  0.33333333  0.33333333  1
  O  O242  1  0.57623333  0.66666667  0.66666667  1
  O  O243  1  0.75710000  0.00000000  0.00000000  1
  O  O244  1  0.42376667  0.33333333  0.33333333  1
  O  O245  1  0.09043333  0.66666667  0.66666667  1
  O  O246  1  0.24290000  0.24290000  0.00000000  1
  O  O247  1  0.90956667  0.57623333  0.33333333  1
  O  O248  1  0.57623333  0.90956667  0.66666667  1
  O  O249  1  0.00000000  0.75710000  0.00000000  1
  O  O250  1  0.66666667  0.09043333  0.33333333  1
  O  O251  1  0.33333333  0.42376667  0.66666667  1
  O  O252  1  0.85910000  0.14090000  0.03640000  1
  O  O253  1  0.52576667  0.47423333  0.36973333  1
  O  O254  1  0.19243333  0.80756667  0.70306667  1
  O  O255  1  0.85910000  0.71820000  0.03640000  1
  O  O256  1  0.52576667  0.05153333  0.36973333  1
  O  O257  1  0.19243333  0.38486667  0.70306667  1
  O  O258  1  0.28180000  0.14090000  0.03640000  1
  O  O259  1  0.94846667  0.47423333  0.36973333  1
  O  O260  1  0.61513333  0.80756667  0.70306667  1
  O  O261  1  0.14090000  0.85910000  0.96360000  1
  O  O262  1  0.80756667  0.19243333  0.29693333  1
  O  O263  1  0.47423333  0.52576667  0.63026667  1
  O  O264  1  0.14090000  0.28180000  0.96360000  1
  O  O265  1  0.80756667  0.61513333  0.29693333  1
  O  O266  1  0.47423333  0.94846667  0.63026667  1
  O  O267  1  0.71820000  0.85910000  0.96360000  1
  O  O268  1  0.38486667  0.19243333  0.29693333  1
  O  O269  1  0.05153333  0.52576667  0.63026667  1
  O  O270  1  0.66140000  0.83070000  0.06550000  1
  O  O271  1  0.32806667  0.16403333  0.39883333  1
  O  O272  1  0.99473333  0.49736667  0.73216667  1
  O  O273  1  0.16930000  0.83070000  0.06550000  1
  O  O274  1  0.83596667  0.16403333  0.39883333  1
  O  O275  1  0.50263333  0.49736667  0.73216667  1
  O  O276  1  0.16930000  0.33860000  0.06550000  1
  O  O277  1  0.83596667  0.67193333  0.39883333  1
  O  O278  1  0.50263333  0.00526667  0.73216667  1
  O  O279  1  0.33860000  0.16930000  0.93450000  1
  O  O280  1  0.00526667  0.50263333  0.26783333  1
  O  O281  1  0.67193333  0.83596667  0.60116667  1
  O  O282  1  0.83070000  0.16930000  0.93450000  1
  O  O283  1  0.49736667  0.50263333  0.26783333  1
  O  O284  1  0.16403333  0.83596667  0.60116667  1
  O  O285  1  0.83070000  0.66140000  0.93450000  1
  O  O286  1  0.49736667  0.99473333  0.26783333  1
  O  O287  1  0.16403333  0.32806667  0.60116667  1
