# generated using pymatgen
data_Si
_symmetry_space_group_name_H-M   'P 1'
_cell_length_a   7.80600000
_cell_length_b   7.80600000
_cell_length_c   27.35000000
_cell_angle_alpha   90.00000000
_cell_angle_beta   90.00000000
_cell_angle_gamma   90.00000000
_symmetry_Int_Tables_number   1
_chemical_formula_structural   Si
_chemical_formula_sum   Si32
_cell_volume   1666.53494460
_cell_formula_units_Z   32
loop_
 _symmetry_equiv_pos_site_id
 _symmetry_equiv_pos_as_xyz
  1  'x, y, z'
loop_
 _atom_site_type_symbol
 _atom_site_label
 _atom_site_symmetry_multiplicity
 _atom_site_fract_x
 _atom_site_fract_y
 _atom_site_fract_z
 _atom_site_occupancy
  Si  Si0  1  0.00000000  0.54590000  0.05720000  1
  Si  Si1  1  0.50000000  0.04590000  0.55720000  1
  Si  Si2  1  0.20410000  0.25000000  0.80720000  1
  Si  Si3  1  0.70410000  0.75000000  0.30720000  1
  Si  Si4  1  0.50000000  0.45410000  0.55720000  1
  Si  Si5  1  0.00000000  0.95410000  0.05720000  1
  Si  Si6  1  0.29590000  0.75000000  0.30720000  1
  Si  Si7  1  0.79590000  0.25000000  0.80720000  1
  Si  Si8  1  0.00000000  0.45410000  0.94280000  1
  Si  Si9  1  0.50000000  0.95410000  0.44280000  1
  Si  Si10  1  0.79590000  0.75000000  0.19280000  1
  Si  Si11  1  0.29590000  0.25000000  0.69280000  1
  Si  Si12  1  0.50000000  0.54590000  0.44280000  1
  Si  Si13  1  0.00000000  0.04590000  0.94280000  1
  Si  Si14  1  0.70410000  0.25000000  0.69280000  1
  Si  Si15  1  0.20410000  0.75000000  0.19280000  1
  Si  Si16  1  0.69110000  0.94110000  0.87500000  1
  Si  Si17  1  0.19110000  0.44110000  0.37500000  1
  Si  Si18  1  0.80890000  0.94110000  0.62500000  1
  Si  Si19  1  0.30890000  0.44110000  0.12500000  1
  Si  Si20  1  0.80890000  0.05890000  0.37500000  1
  Si  Si21  1  0.30890000  0.55890000  0.87500000  1
  Si  Si22  1  0.69110000  0.05890000  0.12500000  1
  Si  Si23  1  0.19110000  0.55890000  0.62500000  1
  Si  Si24  1  0.30890000  0.94110000  0.87500000  1
  Si  Si25  1  0.80890000  0.44110000  0.37500000  1
  Si  Si26  1  0.19110000  0.94110000  0.62500000  1
  Si  Si27  1  0.69110000  0.44110000  0.12500000  1
  Si  Si28  1  0.19110000  0.05890000  0.37500000  1
  Si  Si29  1  0.69110000  0.55890000  0.87500000  1
  Si  Si30  1  0.30890000  0.05890000  0.12500000  1
  Si  Si31  1  0.80890000  0.55890000  0.62500000  1
