# generated using pymatgen
data_O2
_symmetry_space_group_name_H-M   'P 1'
_cell_length_a   7.80600000
_cell_length_b   7.80600000
_cell_length_c   27.35000000
_cell_angle_alpha   90.00000000
_cell_angle_beta   90.00000000
_cell_angle_gamma   90.00000000
_symmetry_Int_Tables_number   1
_chemical_formula_structural   O2
_chemical_formula_sum   O64
_cell_volume   1666.53494460
_cell_formula_units_Z   32
loop_
 _symmetry_equiv_pos_site_id
 _symmetry_equiv_pos_as_xyz
  1  'x, y, z'
loop_
 _atom_site_type_symbol
 _atom_site_label
 _atom_site_symmetry_multiplicity
 _atom_site_fract_x
 _atom_site_fract_y
 _atom_site_fract_z
 _atom_site_occupancy
  O  O0  1  0.16900000  0.03220000  0.08250000  1
  O  O1  1  0.66900000  0.53220000  0.58250000  1
  O  O2  1  0.71780000  0.41900000  0.83250000  1
  O  O3  1  0.21780000  0.91900000  0.33250000  1
  O  O4  1  0.33100000  0.96780000  0.58250000  1
  O  O5  1  0.83100000  0.46780000  0.08250000  1
  O  O6  1  0.78220000  0.58100000  0.33250000  1
  O  O7  1  0.28220000  0.08100000  0.83250000  1
  O  O8  1  0.83100000  0.03220000  0.08250000  1
  O  O9  1  0.33100000  0.53220000  0.58250000  1
  O  O10  1  0.28220000  0.41900000  0.83250000  1
  O  O11  1  0.78220000  0.91900000  0.33250000  1
  O  O12  1  0.66900000  0.96780000  0.58250000  1
  O  O13  1  0.16900000  0.46780000  0.08250000  1
  O  O14  1  0.21780000  0.58100000  0.33250000  1
  O  O15  1  0.71780000  0.08100000  0.83250000  1
  O  O16  1  0.83100000  0.96780000  0.91750000  1
  O  O17  1  0.33100000  0.46780000  0.41750000  1
  O  O18  1  0.28220000  0.58100000  0.16750000  1
  O  O19  1  0.78220000  0.08100000  0.66750000  1
  O  O20  1  0.66900000  0.03220000  0.41750000  1
  O  O21  1  0.16900000  0.53220000  0.91750000  1
  O  O22  1  0.21780000  0.41900000  0.66750000  1
  O  O23  1  0.71780000  0.91900000  0.16750000  1
  O  O24  1  0.16900000  0.96780000  0.91750000  1
  O  O25  1  0.66900000  0.46780000  0.41750000  1
  O  O26  1  0.71780000  0.58100000  0.16750000  1
  O  O27  1  0.21780000  0.08100000  0.66750000  1
  O  O28  1  0.33100000  0.03220000  0.41750000  1
  O  O29  1  0.83100000  0.53220000  0.91750000  1
  O  O30  1  0.78220000  0.41900000  0.66750000  1
  O  O31  1  0.28220000  0.91900000  0.16750000  1
  O  O32  1  0.00000000  0.03820000  0.39660000  1
  O  O33  1  0.50000000  0.53820000  0.89660000  1
  O  O34  1  0.71180000  0.25000000  0.14660000  1
  O  O35  1  0.21180000  0.75000000  0.64660000  1
  O  O36  1  0.50000000  0.96180000  0.89660000  1
  O  O37  1  0.00000000  0.46180000  0.39660000  1
  O  O38  1  0.78820000  0.75000000  0.64660000  1
  O  O39  1  0.28820000  0.25000000  0.14660000  1
  O  O40  1  0.00000000  0.96180000  0.60340000  1
  O  O41  1  0.50000000  0.46180000  0.10340000  1
  O  O42  1  0.28820000  0.75000000  0.85340000  1
  O  O43  1  0.78820000  0.25000000  0.35340000  1
  O  O44  1  0.50000000  0.03820000  0.10340000  1
  O  O45  1  0.00000000  0.53820000  0.60340000  1
  O  O46  1  0.21180000  0.25000000  0.35340000  1
  O  O47  1  0.71180000  0.75000000  0.85340000  1
  O  O48  1  0.00000000  0.75000000  0.06500000  1
  O  O49  1  0.50000000  0.25000000  0.56500000  1
  O  O50  1  0.00000000  0.25000000  0.81500000  1
  O  O51  1  0.50000000  0.75000000  0.31500000  1
  O  O52  1  0.00000000  0.25000000  0.93500000  1
  O  O53  1  0.50000000  0.75000000  0.43500000  1
  O  O54  1  0.00000000  0.75000000  0.18500000  1
  O  O55  1  0.50000000  0.25000000  0.68500000  1
  O  O56  1  0.00000000  0.50000000  0.00000000  1
  O  O57  1  0.50000000  0.00000000  0.50000000  1
  O  O58  1  0.25000000  0.25000000  0.75000000  1
  O  O59  1  0.75000000  0.75000000  0.25000000  1
  O  O60  1  0.50000000  0.50000000  0.50000000  1
  O  O61  1  0.00000000  0.00000000  0.00000000  1
  O  O62  1  0.25000000  0.75000000  0.25000000  1
  O  O63  1  0.75000000  0.25000000  0.75000000  1
