# generated using pymatgen
data_SiO4
_symmetry_space_group_name_H-M   'P 1'
_cell_length_a   8.74800000
_cell_length_b   11.03900000
_cell_length_c   17.47500000
_cell_angle_alpha   90.00000000
_cell_angle_beta   90.00000000
_cell_angle_gamma   90.00000000
_symmetry_Int_Tables_number   1
_chemical_formula_structural   SiO4
_chemical_formula_sum   'Si1 O4'
_cell_volume   1687.54628070
_cell_formula_units_Z   1
loop_
 _symmetry_equiv_pos_site_id
 _symmetry_equiv_pos_as_xyz
  1  'x, y, z'
loop_
 _atom_site_type_symbol
 _atom_site_label
 _atom_site_symmetry_multiplicity
 _atom_site_fract_x
 _atom_site_fract_y
 _atom_site_fract_z
 _atom_site_occupancy
  Si  Si0  1  0.78110000  0.89770000  0.20970000  1
  O  O1  1  0.71720000  1.00600000  0.15690000  1
  O  O2  1  0.83820000  0.94570000  0.29200000  1
  O  O3  1  0.64200000  0.80550000  0.22460000  1
  O  O4  1  0.91810000  0.82590000  0.16800000  1
