# generated using pymatgen
data_O2
_symmetry_space_group_name_H-M   'P 1'
_cell_length_a   8.74800000
_cell_length_b   11.03900000
_cell_length_c   17.47500000
_cell_angle_alpha   90.00000000
_cell_angle_beta   90.00000000
_cell_angle_gamma   90.00000000
_symmetry_Int_Tables_number   1
_chemical_formula_structural   O2
_chemical_formula_sum   O64
_cell_volume   1687.54628070
_cell_formula_units_Z   32
loop_
 _symmetry_equiv_pos_site_id
 _symmetry_equiv_pos_as_xyz
  1  'x, y, z'
loop_
 _atom_site_type_symbol
 _atom_site_label
 _atom_site_symmetry_multiplicity
 _atom_site_fract_x
 _atom_site_fract_y
 _atom_site_fract_z
 _atom_site_occupancy
  O  O0  1  0.71720000  0.99400000  0.84310000  1
  O  O1  1  0.21720000  0.49400000  0.84310000  1
  O  O2  1  0.71720000  0.00600000  0.15690000  1
  O  O3  1  0.21720000  0.50600000  0.15690000  1
  O  O4  1  0.28280000  0.99400000  0.65690000  1
  O  O5  1  0.78280000  0.49400000  0.65690000  1
  O  O6  1  0.28280000  0.00600000  0.34310000  1
  O  O7  1  0.78280000  0.50600000  0.34310000  1
  O  O8  1  0.83820000  0.05430000  0.70800000  1
  O  O9  1  0.33820000  0.55430000  0.70800000  1
  O  O10  1  0.83820000  0.94570000  0.29200000  1
  O  O11  1  0.33820000  0.44570000  0.29200000  1
  O  O12  1  0.16180000  0.05430000  0.79200000  1
  O  O13  1  0.66180000  0.55430000  0.79200000  1
  O  O14  1  0.16180000  0.94570000  0.20800000  1
  O  O15  1  0.66180000  0.44570000  0.20800000  1
  O  O16  1  0.64200000  0.19450000  0.77540000  1
  O  O17  1  0.14200000  0.69450000  0.77540000  1
  O  O18  1  0.64200000  0.80550000  0.22460000  1
  O  O19  1  0.14200000  0.30550000  0.22460000  1
  O  O20  1  0.35800000  0.19450000  0.72460000  1
  O  O21  1  0.85800000  0.69450000  0.72460000  1
  O  O22  1  0.35800000  0.80550000  0.27540000  1
  O  O23  1  0.85800000  0.30550000  0.27540000  1
  O  O24  1  0.91810000  0.17410000  0.83200000  1
  O  O25  1  0.41810000  0.67410000  0.83200000  1
  O  O26  1  0.91810000  0.82590000  0.16800000  1
  O  O27  1  0.41810000  0.32590000  0.16800000  1
  O  O28  1  0.08190000  0.17410000  0.66800000  1
  O  O29  1  0.58190000  0.67410000  0.66800000  1
  O  O30  1  0.08190000  0.82590000  0.33200000  1
  O  O31  1  0.58190000  0.32590000  0.33200000  1
  O  O32  1  0.86070000  0.10120000  0.03910000  1
  O  O33  1  0.36070000  0.60120000  0.03910000  1
  O  O34  1  0.86070000  0.89880000  0.96090000  1
  O  O35  1  0.36070000  0.39880000  0.96090000  1
  O  O36  1  0.13930000  0.10120000  0.46090000  1
  O  O37  1  0.63930000  0.60120000  0.46090000  1
  O  O38  1  0.13930000  0.89880000  0.53910000  1
  O  O39  1  0.63930000  0.39880000  0.53910000  1
  O  O40  1  0.69260000  0.24190000  0.13010000  1
  O  O41  1  0.19260000  0.74190000  0.13010000  1
  O  O42  1  0.69260000  0.75810000  0.86990000  1
  O  O43  1  0.19260000  0.25810000  0.86990000  1
  O  O44  1  0.30740000  0.24190000  0.36990000  1
  O  O45  1  0.80740000  0.74190000  0.36990000  1
  O  O46  1  0.30740000  0.75810000  0.63010000  1
  O  O47  1  0.80740000  0.25810000  0.63010000  1
  O  O48  1  0.95180000  0.14070000  0.17820000  1
  O  O49  1  0.45180000  0.64070000  0.17820000  1
  O  O50  1  0.95180000  0.85930000  0.82180000  1
  O  O51  1  0.45180000  0.35930000  0.82180000  1
  O  O52  1  0.04820000  0.14070000  0.32180000  1
  O  O53  1  0.54820000  0.64070000  0.32180000  1
  O  O54  1  0.04820000  0.85930000  0.67820000  1
  O  O55  1  0.54820000  0.35930000  0.67820000  1
  O  O56  1  0.57590000  0.43710000  0.06350000  1
  O  O57  1  0.07590000  0.93710000  0.06350000  1
  O  O58  1  0.57590000  0.56290000  0.93650000  1
  O  O59  1  0.07590000  0.06290000  0.93650000  1
  O  O60  1  0.42410000  0.43710000  0.43650000  1
  O  O61  1  0.92410000  0.93710000  0.43650000  1
  O  O62  1  0.42410000  0.56290000  0.56350000  1
  O  O63  1  0.92410000  0.06290000  0.56350000  1
