# generated using pymatgen
data_Si
_symmetry_space_group_name_H-M   'P 1'
_cell_length_a   8.74800000
_cell_length_b   11.03900000
_cell_length_c   17.47500000
_cell_angle_alpha   90.00000000
_cell_angle_beta   90.00000000
_cell_angle_gamma   90.00000000
_symmetry_Int_Tables_number   1
_chemical_formula_structural   Si
_chemical_formula_sum   Si32
_cell_volume   1687.54628070
_cell_formula_units_Z   32
loop_
 _symmetry_equiv_pos_site_id
 _symmetry_equiv_pos_as_xyz
  1  'x, y, z'
loop_
 _atom_site_type_symbol
 _atom_site_label
 _atom_site_symmetry_multiplicity
 _atom_site_fract_x
 _atom_site_fract_y
 _atom_site_fract_z
 _atom_site_occupancy
  Si  Si0  1  0.78110000  0.10230000  0.79030000  1
  Si  Si1  1  0.28110000  0.60230000  0.79030000  1
  Si  Si2  1  0.78110000  0.89770000  0.20970000  1
  Si  Si3  1  0.28110000  0.39770000  0.20970000  1
  Si  Si4  1  0.21890000  0.10230000  0.70970000  1
  Si  Si5  1  0.71890000  0.60230000  0.70970000  1
  Si  Si6  1  0.21890000  0.89770000  0.29030000  1
  Si  Si7  1  0.71890000  0.39770000  0.29030000  1
  Si  Si8  1  0.80230000  0.12530000  0.12520000  1
  Si  Si9  1  0.30230000  0.62530000  0.12520000  1
  Si  Si10  1  0.80230000  0.87470000  0.87480000  1
  Si  Si11  1  0.30230000  0.37470000  0.87480000  1
  Si  Si12  1  0.19770000  0.12530000  0.37480000  1
  Si  Si13  1  0.69770000  0.62530000  0.37480000  1
  Si  Si14  1  0.19770000  0.87470000  0.62520000  1
  Si  Si15  1  0.69770000  0.37470000  0.62520000  1
  Si  Si16  1  0.58930000  0.36120000  0.14200000  1
  Si  Si17  1  0.08930000  0.86120000  0.14200000  1
  Si  Si18  1  0.58930000  0.63880000  0.85800000  1
  Si  Si19  1  0.08930000  0.13880000  0.85800000  1
  Si  Si20  1  0.41070000  0.36120000  0.35800000  1
  Si  Si21  1  0.91070000  0.86120000  0.35800000  1
  Si  Si22  1  0.41070000  0.63880000  0.64200000  1
  Si  Si23  1  0.91070000  0.13880000  0.64200000  1
  Si  Si24  1  0.50000000  0.27700000  0.75000000  1
  Si  Si25  1  0.00000000  0.77700000  0.75000000  1
  Si  Si26  1  0.50000000  0.72300000  0.25000000  1
  Si  Si27  1  0.00000000  0.22300000  0.25000000  1
  Si  Si28  1  0.96850000  0.00000000  0.00000000  1
  Si  Si29  1  0.46850000  0.50000000  0.00000000  1
  Si  Si30  1  0.03150000  0.00000000  0.50000000  1
  Si  Si31  1  0.53150000  0.50000000  0.50000000  1
