# generated using pymatgen
data_O2
_symmetry_space_group_name_H-M   'P 1'
_cell_length_a   18.88902000
_cell_length_b   22.80229000
_cell_length_c   29.08152000
_cell_angle_alpha   90.00000000
_cell_angle_beta   90.00000000
_cell_angle_gamma   90.00000000
_symmetry_Int_Tables_number   1
_chemical_formula_structural   O2
_chemical_formula_sum   O308
_cell_volume   12525.78616039
_cell_formula_units_Z   154
loop_
 _symmetry_equiv_pos_site_id
 _symmetry_equiv_pos_as_xyz
  1  'x, y, z'
loop_
 _atom_site_type_symbol
 _atom_site_label
 _atom_site_symmetry_multiplicity
 _atom_site_fract_x
 _atom_site_fract_y
 _atom_site_fract_z
 _atom_site_occupancy
  O  O0  1  0.06963000  0.29696000  0.41809000  1
  O  O1  1  0.06963000  0.70304000  0.58191000  1
  O  O2  1  0.06963000  0.29696000  0.08191000  1
  O  O3  1  0.06963000  0.70304000  0.91809000  1
  O  O4  1  0.93037000  0.70304000  0.58191000  1
  O  O5  1  0.93037000  0.29696000  0.41809000  1
  O  O6  1  0.93037000  0.70304000  0.91809000  1
  O  O7  1  0.93037000  0.29696000  0.08191000  1
  O  O8  1  0.56963000  0.79696000  0.41809000  1
  O  O9  1  0.56963000  0.20304000  0.58191000  1
  O  O10  1  0.56963000  0.79696000  0.08191000  1
  O  O11  1  0.56963000  0.20304000  0.91809000  1
  O  O12  1  0.43037000  0.20304000  0.58191000  1
  O  O13  1  0.43037000  0.79696000  0.41809000  1
  O  O14  1  0.43037000  0.20304000  0.91809000  1
  O  O15  1  0.43037000  0.79696000  0.08191000  1
  O  O16  1  0.16616000  0.21799000  0.43911000  1
  O  O17  1  0.16616000  0.78201000  0.56089000  1
  O  O18  1  0.16616000  0.21799000  0.06089000  1
  O  O19  1  0.16616000  0.78201000  0.93911000  1
  O  O20  1  0.83384000  0.78201000  0.56089000  1
  O  O21  1  0.83384000  0.21799000  0.43911000  1
  O  O22  1  0.83384000  0.78201000  0.93911000  1
  O  O23  1  0.83384000  0.21799000  0.06089000  1
  O  O24  1  0.66616000  0.71799000  0.43911000  1
  O  O25  1  0.66616000  0.28201000  0.56089000  1
  O  O26  1  0.66616000  0.71799000  0.06089000  1
  O  O27  1  0.66616000  0.28201000  0.93911000  1
  O  O28  1  0.33384000  0.28201000  0.56089000  1
  O  O29  1  0.33384000  0.71799000  0.43911000  1
  O  O30  1  0.33384000  0.28201000  0.93911000  1
  O  O31  1  0.33384000  0.71799000  0.06089000  1
  O  O32  1  0.19975000  0.32946000  0.43594000  1
  O  O33  1  0.19975000  0.67054000  0.56406000  1
  O  O34  1  0.19975000  0.32946000  0.06406000  1
  O  O35  1  0.19975000  0.67054000  0.93594000  1
  O  O36  1  0.80025000  0.67054000  0.56406000  1
  O  O37  1  0.80025000  0.32946000  0.43594000  1
  O  O38  1  0.80025000  0.67054000  0.93594000  1
  O  O39  1  0.80025000  0.32946000  0.06406000  1
  O  O40  1  0.69975000  0.82946000  0.43594000  1
  O  O41  1  0.69975000  0.17054000  0.56406000  1
  O  O42  1  0.69975000  0.82946000  0.06406000  1
  O  O43  1  0.69975000  0.17054000  0.93594000  1
  O  O44  1  0.30025000  0.17054000  0.56406000  1
  O  O45  1  0.30025000  0.82946000  0.43594000  1
  O  O46  1  0.30025000  0.17054000  0.93594000  1
  O  O47  1  0.30025000  0.82946000  0.06406000  1
  O  O48  1  0.12136000  0.28863000  0.50342000  1
  O  O49  1  0.12136000  0.71137000  0.49658000  1
  O  O50  1  0.12136000  0.28863000  0.99658000  1
  O  O51  1  0.12136000  0.71137000  0.00342000  1
  O  O52  1  0.87864000  0.71137000  0.49658000  1
  O  O53  1  0.87864000  0.28863000  0.50342000  1
  O  O54  1  0.87864000  0.71137000  0.00342000  1
  O  O55  1  0.87864000  0.28863000  0.99658000  1
  O  O56  1  0.62136000  0.78863000  0.50342000  1
  O  O57  1  0.62136000  0.21137000  0.49658000  1
  O  O58  1  0.62136000  0.78863000  0.99658000  1
  O  O59  1  0.62136000  0.21137000  0.00342000  1
  O  O60  1  0.37864000  0.21137000  0.49658000  1
  O  O61  1  0.37864000  0.78863000  0.50342000  1
  O  O62  1  0.37864000  0.21137000  0.00342000  1
  O  O63  1  0.37864000  0.78863000  0.99658000  1
  O  O64  1  0.43122000  0.24379000  0.41596000  1
  O  O65  1  0.43122000  0.75621000  0.58404000  1
  O  O66  1  0.43122000  0.24379000  0.08404000  1
  O  O67  1  0.43122000  0.75621000  0.91596000  1
  O  O68  1  0.56878000  0.75621000  0.58404000  1
  O  O69  1  0.56878000  0.24379000  0.41596000  1
  O  O70  1  0.56878000  0.75621000  0.91596000  1
  O  O71  1  0.56878000  0.24379000  0.08404000  1
  O  O72  1  0.93122000  0.74379000  0.41596000  1
  O  O73  1  0.93122000  0.25621000  0.58404000  1
  O  O74  1  0.93122000  0.74379000  0.08404000  1
  O  O75  1  0.93122000  0.25621000  0.91596000  1
  O  O76  1  0.06878000  0.25621000  0.58404000  1
  O  O77  1  0.06878000  0.74379000  0.41596000  1
  O  O78  1  0.06878000  0.25621000  0.91596000  1
  O  O79  1  0.06878000  0.74379000  0.08404000  1
  O  O80  1  0.30172000  0.20353000  0.42000000  1
  O  O81  1  0.30172000  0.79647000  0.58000000  1
  O  O82  1  0.30172000  0.20353000  0.08000000  1
  O  O83  1  0.30172000  0.79647000  0.92000000  1
  O  O84  1  0.69828000  0.79647000  0.58000000  1
  O  O85  1  0.69828000  0.20353000  0.42000000  1
  O  O86  1  0.69828000  0.79647000  0.92000000  1
  O  O87  1  0.69828000  0.20353000  0.08000000  1
  O  O88  1  0.80172000  0.70353000  0.42000000  1
  O  O89  1  0.80172000  0.29647000  0.58000000  1
  O  O90  1  0.80172000  0.70353000  0.08000000  1
  O  O91  1  0.80172000  0.29647000  0.92000000  1
  O  O92  1  0.19828000  0.29647000  0.58000000  1
  O  O93  1  0.19828000  0.70353000  0.42000000  1
  O  O94  1  0.19828000  0.29647000  0.92000000  1
  O  O95  1  0.19828000  0.70353000  0.08000000  1
  O  O96  1  0.33386000  0.30657000  0.45444000  1
  O  O97  1  0.33386000  0.69343000  0.54556000  1
  O  O98  1  0.33386000  0.30657000  0.04556000  1
  O  O99  1  0.33386000  0.69343000  0.95444000  1
  O  O100  1  0.66614000  0.69343000  0.54556000  1
  O  O101  1  0.66614000  0.30657000  0.45444000  1
  O  O102  1  0.66614000  0.69343000  0.95444000  1
  O  O103  1  0.66614000  0.30657000  0.04556000  1
  O  O104  1  0.83386000  0.80657000  0.45444000  1
  O  O105  1  0.83386000  0.19343000  0.54556000  1
  O  O106  1  0.83386000  0.80657000  0.04556000  1
  O  O107  1  0.83386000  0.19343000  0.95444000  1
  O  O108  1  0.16614000  0.19343000  0.54556000  1
  O  O109  1  0.16614000  0.80657000  0.45444000  1
  O  O110  1  0.16614000  0.19343000  0.95444000  1
  O  O111  1  0.16614000  0.80657000  0.04556000  1
  O  O112  1  0.20712000  0.11876000  0.40155000  1
  O  O113  1  0.20712000  0.88124000  0.59845000  1
  O  O114  1  0.20712000  0.11876000  0.09845000  1
  O  O115  1  0.20712000  0.88124000  0.90155000  1
  O  O116  1  0.79288000  0.88124000  0.59845000  1
  O  O117  1  0.79288000  0.11876000  0.40155000  1
  O  O118  1  0.79288000  0.88124000  0.90155000  1
  O  O119  1  0.79288000  0.11876000  0.09845000  1
  O  O120  1  0.70712000  0.61876000  0.40155000  1
  O  O121  1  0.70712000  0.38124000  0.59845000  1
  O  O122  1  0.70712000  0.61876000  0.09845000  1
  O  O123  1  0.70712000  0.38124000  0.90155000  1
  O  O124  1  0.29288000  0.38124000  0.59845000  1
  O  O125  1  0.29288000  0.61876000  0.40155000  1
  O  O126  1  0.29288000  0.38124000  0.90155000  1
  O  O127  1  0.29288000  0.61876000  0.09845000  1
  O  O128  1  0.24581000  0.14164000  0.48464000  1
  O  O129  1  0.24581000  0.85836000  0.51536000  1
  O  O130  1  0.24581000  0.14164000  0.01536000  1
  O  O131  1  0.24581000  0.85836000  0.98464000  1
  O  O132  1  0.75419000  0.85836000  0.51536000  1
  O  O133  1  0.75419000  0.14164000  0.48464000  1
  O  O134  1  0.75419000  0.85836000  0.98464000  1
  O  O135  1  0.75419000  0.14164000  0.01536000  1
  O  O136  1  0.74581000  0.64164000  0.48464000  1
  O  O137  1  0.74581000  0.35836000  0.51536000  1
  O  O138  1  0.74581000  0.64164000  0.01536000  1
  O  O139  1  0.74581000  0.35836000  0.98464000  1
  O  O140  1  0.25419000  0.35836000  0.51536000  1
  O  O141  1  0.25419000  0.64164000  0.48464000  1
  O  O142  1  0.25419000  0.35836000  0.98464000  1
  O  O143  1  0.25419000  0.64164000  0.01536000  1
  O  O144  1  0.20571000  0.08369000  0.55674000  1
  O  O145  1  0.20571000  0.91631000  0.44326000  1
  O  O146  1  0.20571000  0.08369000  0.94326000  1
  O  O147  1  0.20571000  0.91631000  0.05674000  1
  O  O148  1  0.79429000  0.91631000  0.44326000  1
  O  O149  1  0.79429000  0.08369000  0.55674000  1
  O  O150  1  0.79429000  0.91631000  0.05674000  1
  O  O151  1  0.79429000  0.08369000  0.94326000  1
  O  O152  1  0.70571000  0.58369000  0.55674000  1
  O  O153  1  0.70571000  0.41631000  0.44326000  1
  O  O154  1  0.70571000  0.58369000  0.94326000  1
  O  O155  1  0.70571000  0.41631000  0.05674000  1
  O  O156  1  0.29429000  0.41631000  0.44326000  1
  O  O157  1  0.29429000  0.58369000  0.55674000  1
  O  O158  1  0.29429000  0.41631000  0.05674000  1
  O  O159  1  0.29429000  0.58369000  0.94326000  1
  O  O160  1  0.12656000  0.07556000  0.33822000  1
  O  O161  1  0.12656000  0.92444000  0.66178000  1
  O  O162  1  0.12656000  0.07556000  0.16178000  1
  O  O163  1  0.12656000  0.92444000  0.83822000  1
  O  O164  1  0.87344000  0.92444000  0.66178000  1
  O  O165  1  0.87344000  0.07556000  0.33822000  1
  O  O166  1  0.87344000  0.92444000  0.83822000  1
  O  O167  1  0.87344000  0.07556000  0.16178000  1
  O  O168  1  0.62656000  0.57556000  0.33822000  1
  O  O169  1  0.62656000  0.42444000  0.66178000  1
  O  O170  1  0.62656000  0.57556000  0.16178000  1
  O  O171  1  0.62656000  0.42444000  0.83822000  1
  O  O172  1  0.37344000  0.42444000  0.66178000  1
  O  O173  1  0.37344000  0.57556000  0.33822000  1
  O  O174  1  0.37344000  0.42444000  0.83822000  1
  O  O175  1  0.37344000  0.57556000  0.16178000  1
  O  O176  1  0.07002000  0.10167000  0.41844000  1
  O  O177  1  0.07002000  0.89833000  0.58156000  1
  O  O178  1  0.07002000  0.10167000  0.08156000  1
  O  O179  1  0.07002000  0.89833000  0.91844000  1
  O  O180  1  0.92998000  0.89833000  0.58156000  1
  O  O181  1  0.92998000  0.10167000  0.41844000  1
  O  O182  1  0.92998000  0.89833000  0.91844000  1
  O  O183  1  0.92998000  0.10167000  0.08156000  1
  O  O184  1  0.57002000  0.60167000  0.41844000  1
  O  O185  1  0.57002000  0.39833000  0.58156000  1
  O  O186  1  0.57002000  0.60167000  0.08156000  1
  O  O187  1  0.57002000  0.39833000  0.91844000  1
  O  O188  1  0.42998000  0.39833000  0.58156000  1
  O  O189  1  0.42998000  0.60167000  0.41844000  1
  O  O190  1  0.42998000  0.39833000  0.91844000  1
  O  O191  1  0.42998000  0.60167000  0.08156000  1
  O  O192  1  0.15271000  0.01137000  0.41082000  1
  O  O193  1  0.15271000  0.98863000  0.58918000  1
  O  O194  1  0.15271000  0.01137000  0.08918000  1
  O  O195  1  0.15271000  0.98863000  0.91082000  1
  O  O196  1  0.84729000  0.98863000  0.58918000  1
  O  O197  1  0.84729000  0.01137000  0.41082000  1
  O  O198  1  0.84729000  0.98863000  0.91082000  1
  O  O199  1  0.84729000  0.01137000  0.08918000  1
  O  O200  1  0.65271000  0.51137000  0.41082000  1
  O  O201  1  0.65271000  0.48863000  0.58918000  1
  O  O202  1  0.65271000  0.51137000  0.08918000  1
  O  O203  1  0.65271000  0.48863000  0.91082000  1
  O  O204  1  0.34729000  0.48863000  0.58918000  1
  O  O205  1  0.34729000  0.51137000  0.41082000  1
  O  O206  1  0.34729000  0.48863000  0.91082000  1
  O  O207  1  0.34729000  0.51137000  0.08918000  1
  O  O208  1  0.06945000  0.06451000  0.54572000  1
  O  O209  1  0.06945000  0.93549000  0.45428000  1
  O  O210  1  0.06945000  0.06451000  0.95428000  1
  O  O211  1  0.06945000  0.93549000  0.04572000  1
  O  O212  1  0.93055000  0.93549000  0.45428000  1
  O  O213  1  0.93055000  0.06451000  0.54572000  1
  O  O214  1  0.93055000  0.93549000  0.04572000  1
  O  O215  1  0.93055000  0.06451000  0.95428000  1
  O  O216  1  0.56945000  0.56451000  0.54572000  1
  O  O217  1  0.56945000  0.43549000  0.45428000  1
  O  O218  1  0.56945000  0.56451000  0.95428000  1
  O  O219  1  0.56945000  0.43549000  0.04572000  1
  O  O220  1  0.43055000  0.43549000  0.45428000  1
  O  O221  1  0.43055000  0.56451000  0.54572000  1
  O  O222  1  0.43055000  0.43549000  0.04572000  1
  O  O223  1  0.43055000  0.56451000  0.95428000  1
  O  O224  1  0.16255000  0.00000000  0.50000000  1
  O  O225  1  0.16255000  0.00000000  0.00000000  1
  O  O226  1  0.83745000  0.00000000  0.50000000  1
  O  O227  1  0.83745000  0.00000000  0.00000000  1
  O  O228  1  0.66255000  0.50000000  0.50000000  1
  O  O229  1  0.66255000  0.50000000  0.00000000  1
  O  O230  1  0.33745000  0.50000000  0.50000000  1
  O  O231  1  0.33745000  0.50000000  0.00000000  1
  O  O232  1  0.00000000  0.07829000  0.30115000  1
  O  O233  1  0.00000000  0.92171000  0.69885000  1
  O  O234  1  0.00000000  0.07829000  0.19885000  1
  O  O235  1  0.00000000  0.92171000  0.80115000  1
  O  O236  1  0.50000000  0.57829000  0.30115000  1
  O  O237  1  0.50000000  0.42171000  0.69885000  1
  O  O238  1  0.50000000  0.57829000  0.19885000  1
  O  O239  1  0.50000000  0.42171000  0.80115000  1
  O  O240  1  0.11183000  0.09706000  0.25000000  1
  O  O241  1  0.11183000  0.90294000  0.75000000  1
  O  O242  1  0.88817000  0.90294000  0.75000000  1
  O  O243  1  0.88817000  0.09706000  0.25000000  1
  O  O244  1  0.61183000  0.59706000  0.25000000  1
  O  O245  1  0.61183000  0.40294000  0.75000000  1
  O  O246  1  0.38817000  0.40294000  0.75000000  1
  O  O247  1  0.38817000  0.59706000  0.25000000  1
  O  O248  1  0.06903000  0.17651000  0.30887000  1
  O  O249  1  0.06903000  0.82349000  0.69113000  1
  O  O250  1  0.06903000  0.17651000  0.19113000  1
  O  O251  1  0.06903000  0.82349000  0.80887000  1
  O  O252  1  0.93097000  0.82349000  0.69113000  1
  O  O253  1  0.93097000  0.17651000  0.30887000  1
  O  O254  1  0.93097000  0.82349000  0.80887000  1
  O  O255  1  0.93097000  0.17651000  0.19113000  1
  O  O256  1  0.56903000  0.67651000  0.30887000  1
  O  O257  1  0.56903000  0.32349000  0.69113000  1
  O  O258  1  0.56903000  0.67651000  0.19113000  1
  O  O259  1  0.56903000  0.32349000  0.80887000  1
  O  O260  1  0.43097000  0.32349000  0.69113000  1
  O  O261  1  0.43097000  0.67651000  0.30887000  1
  O  O262  1  0.43097000  0.32349000  0.80887000  1
  O  O263  1  0.43097000  0.67651000  0.19113000  1
  O  O264  1  0.00000000  0.26660000  0.34134000  1
  O  O265  1  0.00000000  0.73340000  0.65866000  1
  O  O266  1  0.00000000  0.26660000  0.15866000  1
  O  O267  1  0.00000000  0.73340000  0.84134000  1
  O  O268  1  0.50000000  0.76660000  0.34134000  1
  O  O269  1  0.50000000  0.23340000  0.65866000  1
  O  O270  1  0.50000000  0.76660000  0.15866000  1
  O  O271  1  0.50000000  0.23340000  0.84134000  1
  O  O272  1  0.00000000  0.19981000  0.41492000  1
  O  O273  1  0.00000000  0.80019000  0.58508000  1
  O  O274  1  0.00000000  0.19981000  0.08508000  1
  O  O275  1  0.00000000  0.80019000  0.91492000  1
  O  O276  1  0.50000000  0.69981000  0.41492000  1
  O  O277  1  0.50000000  0.30019000  0.58508000  1
  O  O278  1  0.50000000  0.69981000  0.08508000  1
  O  O279  1  0.50000000  0.30019000  0.91492000  1
  O  O280  1  0.00000000  0.15461000  0.58027000  1
  O  O281  1  0.00000000  0.84539000  0.41973000  1
  O  O282  1  0.00000000  0.15461000  0.91973000  1
  O  O283  1  0.00000000  0.84539000  0.08027000  1
  O  O284  1  0.50000000  0.65461000  0.58027000  1
  O  O285  1  0.50000000  0.34539000  0.41973000  1
  O  O286  1  0.50000000  0.65461000  0.91973000  1
  O  O287  1  0.50000000  0.34539000  0.08027000  1
  O  O288  1  0.00000000  0.13707000  0.49149000  1
  O  O289  1  0.00000000  0.86293000  0.50851000  1
  O  O290  1  0.00000000  0.13707000  0.00851000  1
  O  O291  1  0.00000000  0.86293000  0.99149000  1
  O  O292  1  0.50000000  0.63707000  0.49149000  1
  O  O293  1  0.50000000  0.36293000  0.50851000  1
  O  O294  1  0.50000000  0.63707000  0.00851000  1
  O  O295  1  0.50000000  0.36293000  0.99149000  1
  O  O296  1  0.00000000  0.24271000  0.25000000  1
  O  O297  1  0.00000000  0.75729000  0.75000000  1
  O  O298  1  0.50000000  0.74271000  0.25000000  1
  O  O299  1  0.50000000  0.25729000  0.75000000  1
  O  O300  1  0.00000000  0.21719000  0.65595000  1
  O  O301  1  0.00000000  0.78281000  0.34405000  1
  O  O302  1  0.00000000  0.21719000  0.84405000  1
  O  O303  1  0.00000000  0.78281000  0.15595000  1
  O  O304  1  0.50000000  0.71719000  0.65595000  1
  O  O305  1  0.50000000  0.28281000  0.34405000  1
  O  O306  1  0.50000000  0.71719000  0.84405000  1
  O  O307  1  0.50000000  0.28281000  0.15595000  1
