# generated using pymatgen
data_Si
_symmetry_space_group_name_H-M   'P 1'
_cell_length_a   18.88902000
_cell_length_b   22.80229000
_cell_length_c   29.08152000
_cell_angle_alpha   90.00000000
_cell_angle_beta   90.00000000
_cell_angle_gamma   90.00000000
_symmetry_Int_Tables_number   1
_chemical_formula_structural   Si
_chemical_formula_sum   Si152
_cell_volume   12525.78616039
_cell_formula_units_Z   152
loop_
 _symmetry_equiv_pos_site_id
 _symmetry_equiv_pos_as_xyz
  1  'x, y, z'
loop_
 _atom_site_type_symbol
 _atom_site_label
 _atom_site_symmetry_multiplicity
 _atom_site_fract_x
 _atom_site_fract_y
 _atom_site_fract_z
 _atom_site_occupancy
  Si  Si0  1  0.13825000  0.28347000  0.44925000  1
  Si  Si1  1  0.13825000  0.71653000  0.55075000  1
  Si  Si2  1  0.13825000  0.28347000  0.05075000  1
  Si  Si3  1  0.13825000  0.71653000  0.94925000  1
  Si  Si4  1  0.86175000  0.71653000  0.55075000  1
  Si  Si5  1  0.86175000  0.28347000  0.44925000  1
  Si  Si6  1  0.86175000  0.71653000  0.94925000  1
  Si  Si7  1  0.86175000  0.28347000  0.05075000  1
  Si  Si8  1  0.63825000  0.78347000  0.44925000  1
  Si  Si9  1  0.63825000  0.21653000  0.55075000  1
  Si  Si10  1  0.63825000  0.78347000  0.05075000  1
  Si  Si11  1  0.63825000  0.21653000  0.94925000  1
  Si  Si12  1  0.36175000  0.21653000  0.55075000  1
  Si  Si13  1  0.36175000  0.78347000  0.44925000  1
  Si  Si14  1  0.36175000  0.21653000  0.94925000  1
  Si  Si15  1  0.36175000  0.78347000  0.05075000  1
  Si  Si16  1  0.36118000  0.24031000  0.44734000  1
  Si  Si17  1  0.36118000  0.75969000  0.55266000  1
  Si  Si18  1  0.36118000  0.24031000  0.05266000  1
  Si  Si19  1  0.36118000  0.75969000  0.94734000  1
  Si  Si20  1  0.63882000  0.75969000  0.55266000  1
  Si  Si21  1  0.63882000  0.24031000  0.44734000  1
  Si  Si22  1  0.63882000  0.75969000  0.94734000  1
  Si  Si23  1  0.63882000  0.24031000  0.05266000  1
  Si  Si24  1  0.86118000  0.74031000  0.44734000  1
  Si  Si25  1  0.86118000  0.25969000  0.55266000  1
  Si  Si26  1  0.86118000  0.74031000  0.05266000  1
  Si  Si27  1  0.86118000  0.25969000  0.94734000  1
  Si  Si28  1  0.13882000  0.25969000  0.55266000  1
  Si  Si29  1  0.13882000  0.74031000  0.44734000  1
  Si  Si30  1  0.13882000  0.25969000  0.94734000  1
  Si  Si31  1  0.13882000  0.74031000  0.05266000  1
  Si  Si32  1  0.22974000  0.17127000  0.43549000  1
  Si  Si33  1  0.22974000  0.82873000  0.56451000  1
  Si  Si34  1  0.22974000  0.17127000  0.06451000  1
  Si  Si35  1  0.22974000  0.82873000  0.93549000  1
  Si  Si36  1  0.77026000  0.82873000  0.56451000  1
  Si  Si37  1  0.77026000  0.17127000  0.43549000  1
  Si  Si38  1  0.77026000  0.82873000  0.93549000  1
  Si  Si39  1  0.77026000  0.17127000  0.06451000  1
  Si  Si40  1  0.72974000  0.67127000  0.43549000  1
  Si  Si41  1  0.72974000  0.32873000  0.56451000  1
  Si  Si42  1  0.72974000  0.67127000  0.06451000  1
  Si  Si43  1  0.72974000  0.32873000  0.93549000  1
  Si  Si44  1  0.27026000  0.32873000  0.56451000  1
  Si  Si45  1  0.27026000  0.67127000  0.43549000  1
  Si  Si46  1  0.27026000  0.32873000  0.93549000  1
  Si  Si47  1  0.27026000  0.67127000  0.06451000  1
  Si  Si48  1  0.22978000  0.14738000  0.53880000  1
  Si  Si49  1  0.22978000  0.85262000  0.46120000  1
  Si  Si50  1  0.22978000  0.14738000  0.96120000  1
  Si  Si51  1  0.22978000  0.85262000  0.03880000  1
  Si  Si52  1  0.77022000  0.85262000  0.46120000  1
  Si  Si53  1  0.77022000  0.14738000  0.53880000  1
  Si  Si54  1  0.77022000  0.85262000  0.03880000  1
  Si  Si55  1  0.77022000  0.14738000  0.96120000  1
  Si  Si56  1  0.72978000  0.64738000  0.53880000  1
  Si  Si57  1  0.72978000  0.35262000  0.46120000  1
  Si  Si58  1  0.72978000  0.64738000  0.96120000  1
  Si  Si59  1  0.72978000  0.35262000  0.03880000  1
  Si  Si60  1  0.27022000  0.35262000  0.46120000  1
  Si  Si61  1  0.27022000  0.64738000  0.53880000  1
  Si  Si62  1  0.27022000  0.35262000  0.03880000  1
  Si  Si63  1  0.27022000  0.64738000  0.96120000  1
  Si  Si64  1  0.13950000  0.07722000  0.39291000  1
  Si  Si65  1  0.13950000  0.92278000  0.60709000  1
  Si  Si66  1  0.13950000  0.07722000  0.10709000  1
  Si  Si67  1  0.13950000  0.92278000  0.89291000  1
  Si  Si68  1  0.86050000  0.92278000  0.60709000  1
  Si  Si69  1  0.86050000  0.07722000  0.39291000  1
  Si  Si70  1  0.86050000  0.92278000  0.89291000  1
  Si  Si71  1  0.86050000  0.07722000  0.10709000  1
  Si  Si72  1  0.63950000  0.57722000  0.39291000  1
  Si  Si73  1  0.63950000  0.42278000  0.60709000  1
  Si  Si74  1  0.63950000  0.57722000  0.10709000  1
  Si  Si75  1  0.63950000  0.42278000  0.89291000  1
  Si  Si76  1  0.36050000  0.42278000  0.60709000  1
  Si  Si77  1  0.36050000  0.57722000  0.39291000  1
  Si  Si78  1  0.36050000  0.42278000  0.89291000  1
  Si  Si79  1  0.36050000  0.57722000  0.10709000  1
  Si  Si80  1  0.14642000  0.03435000  0.54716000  1
  Si  Si81  1  0.14642000  0.96565000  0.45284000  1
  Si  Si82  1  0.14642000  0.03435000  0.95284000  1
  Si  Si83  1  0.14642000  0.96565000  0.04716000  1
  Si  Si84  1  0.85358000  0.96565000  0.45284000  1
  Si  Si85  1  0.85358000  0.03435000  0.54716000  1
  Si  Si86  1  0.85358000  0.96565000  0.04716000  1
  Si  Si87  1  0.85358000  0.03435000  0.95284000  1
  Si  Si88  1  0.64642000  0.53435000  0.54716000  1
  Si  Si89  1  0.64642000  0.46565000  0.45284000  1
  Si  Si90  1  0.64642000  0.53435000  0.95284000  1
  Si  Si91  1  0.64642000  0.46565000  0.04716000  1
  Si  Si92  1  0.35358000  0.46565000  0.45284000  1
  Si  Si93  1  0.35358000  0.53435000  0.54716000  1
  Si  Si94  1  0.35358000  0.46565000  0.04716000  1
  Si  Si95  1  0.35358000  0.53435000  0.95284000  1
  Si  Si96  1  0.07795000  0.10710000  0.30023000  1
  Si  Si97  1  0.07795000  0.89290000  0.69977000  1
  Si  Si98  1  0.07795000  0.10710000  0.19977000  1
  Si  Si99  1  0.07795000  0.89290000  0.80023000  1
  Si  Si100  1  0.92205000  0.89290000  0.69977000  1
  Si  Si101  1  0.92205000  0.10710000  0.30023000  1
  Si  Si102  1  0.92205000  0.89290000  0.80023000  1
  Si  Si103  1  0.92205000  0.10710000  0.19977000  1
  Si  Si104  1  0.57795000  0.60710000  0.30023000  1
  Si  Si105  1  0.57795000  0.39290000  0.69977000  1
  Si  Si106  1  0.57795000  0.60710000  0.19977000  1
  Si  Si107  1  0.57795000  0.39290000  0.80023000  1
  Si  Si108  1  0.42205000  0.39290000  0.69977000  1
  Si  Si109  1  0.42205000  0.60710000  0.30023000  1
  Si  Si110  1  0.42205000  0.39290000  0.80023000  1
  Si  Si111  1  0.42205000  0.60710000  0.19977000  1
  Si  Si112  1  0.00000000  0.26649000  0.39677000  1
  Si  Si113  1  0.00000000  0.73351000  0.60323000  1
  Si  Si114  1  0.00000000  0.26649000  0.10323000  1
  Si  Si115  1  0.00000000  0.73351000  0.89677000  1
  Si  Si116  1  0.50000000  0.76649000  0.39677000  1
  Si  Si117  1  0.50000000  0.23351000  0.60323000  1
  Si  Si118  1  0.50000000  0.76649000  0.10323000  1
  Si  Si119  1  0.50000000  0.23351000  0.89677000  1
  Si  Si120  1  0.00000000  0.22024000  0.60062000  1
  Si  Si121  1  0.00000000  0.77976000  0.39938000  1
  Si  Si122  1  0.00000000  0.22024000  0.89938000  1
  Si  Si123  1  0.00000000  0.77976000  0.10062000  1
  Si  Si124  1  0.50000000  0.72024000  0.60062000  1
  Si  Si125  1  0.50000000  0.27976000  0.39938000  1
  Si  Si126  1  0.50000000  0.72024000  0.89938000  1
  Si  Si127  1  0.50000000  0.27976000  0.10062000  1
  Si  Si128  1  0.00000000  0.13474000  0.43619000  1
  Si  Si129  1  0.00000000  0.86526000  0.56381000  1
  Si  Si130  1  0.00000000  0.13474000  0.06381000  1
  Si  Si131  1  0.00000000  0.86526000  0.93619000  1
  Si  Si132  1  0.50000000  0.63474000  0.43619000  1
  Si  Si133  1  0.50000000  0.36526000  0.56381000  1
  Si  Si134  1  0.50000000  0.63474000  0.06381000  1
  Si  Si135  1  0.50000000  0.36526000  0.93619000  1
  Si  Si136  1  0.00000000  0.10502000  0.54084000  1
  Si  Si137  1  0.00000000  0.89498000  0.45916000  1
  Si  Si138  1  0.00000000  0.10502000  0.95916000  1
  Si  Si139  1  0.00000000  0.89498000  0.04084000  1
  Si  Si140  1  0.50000000  0.60502000  0.54084000  1
  Si  Si141  1  0.50000000  0.39498000  0.45916000  1
  Si  Si142  1  0.50000000  0.60502000  0.95916000  1
  Si  Si143  1  0.50000000  0.39498000  0.04084000  1
  Si  Si144  1  0.00000000  0.21726000  0.30171000  1
  Si  Si145  1  0.00000000  0.78274000  0.69829000  1
  Si  Si146  1  0.00000000  0.21726000  0.19829000  1
  Si  Si147  1  0.00000000  0.78274000  0.80171000  1
  Si  Si148  1  0.50000000  0.71726000  0.30171000  1
  Si  Si149  1  0.50000000  0.28274000  0.69829000  1
  Si  Si150  1  0.50000000  0.71726000  0.19829000  1
  Si  Si151  1  0.50000000  0.28274000  0.80171000  1
