# generated using pymatgen
data_SiO4
_symmetry_space_group_name_H-M   'P 1'
_cell_length_a   18.88902000
_cell_length_b   22.80229000
_cell_length_c   29.08152000
_cell_angle_alpha   90.00000000
_cell_angle_beta   90.00000000
_cell_angle_gamma   90.00000000
_symmetry_Int_Tables_number   1
_chemical_formula_structural   SiO4
_chemical_formula_sum   'Si1 O4'
_cell_volume   12525.78616039
_cell_formula_units_Z   1
loop_
 _symmetry_equiv_pos_site_id
 _symmetry_equiv_pos_as_xyz
  1  'x, y, z'
loop_
 _atom_site_type_symbol
 _atom_site_label
 _atom_site_symmetry_multiplicity
 _atom_site_fract_x
 _atom_site_fract_y
 _atom_site_fract_z
 _atom_site_occupancy
  Si  Si0  1  0.86050000  0.92278000  0.89291000  1
  O  O1  1  0.79288000  0.88124000  0.90155000  1
  O  O2  1  0.87344000  0.92444000  0.83822000  1
  O  O3  1  0.92998000  0.89833000  0.91844000  1
  O  O4  1  0.84729000  0.98863000  0.91082000  1
