# generated using pymatgen
data_SiO4
_symmetry_space_group_name_H-M   'P 1'
_cell_length_a   13.92610000
_cell_length_b   14.41880000
_cell_length_c   17.37180000
_cell_angle_alpha   90.00000000
_cell_angle_beta   129.20480000
_cell_angle_gamma   90.00000000
_symmetry_Int_Tables_number   1
_chemical_formula_structural   SiO4
_chemical_formula_sum   'Si1 O4'
_cell_volume   2702.98954510
_cell_formula_units_Z   1
loop_
 _symmetry_equiv_pos_site_id
 _symmetry_equiv_pos_as_xyz
  1  'x, y, z'
loop_
 _atom_site_type_symbol
 _atom_site_label
 _atom_site_symmetry_multiplicity
 _atom_site_fract_x
 _atom_site_fract_y
 _atom_site_fract_z
 _atom_site_occupancy
  Si  Si0  1  0.38903000  0.87489000  0.35318000  1
  O  O1  1  0.52474000  0.91394000  0.40132000  1
  O  O2  1  0.33679000  0.81639000  0.25506000  1
  O  O3  1  0.29854000  0.96115000  0.32376000  1
  O  O4  1  0.39596000  0.80937000  0.43090000  1
