# generated using pymatgen
data_SiO4
_symmetry_space_group_name_H-M   'P 1'
_cell_length_a   13.92610000
_cell_length_b   14.41880000
_cell_length_c   17.37180000
_cell_angle_alpha   90.00000000
_cell_angle_beta   129.20480000
_cell_angle_gamma   90.00000000
_symmetry_Int_Tables_number   1
_chemical_formula_structural   SiO4
_chemical_formula_sum   'Si1 O4'
_cell_volume   2702.98954510
_cell_formula_units_Z   1
loop_
 _symmetry_equiv_pos_site_id
 _symmetry_equiv_pos_as_xyz
  1  'x, y, z'
loop_
 _atom_site_type_symbol
 _atom_site_label
 _atom_site_symmetry_multiplicity
 _atom_site_fract_x
 _atom_site_fract_y
 _atom_site_fract_z
 _atom_site_occupancy
  Si  Si0  1  0.73807000  0.74784000  0.40364000  1
  O  O1  1  0.72380000  0.84747000  0.43563000  1
  O  O2  1  0.65995000  0.67204000  0.41199000  1
  O  O3  1  0.68865000  0.75321000  0.29132000  1
  O  O4  1  0.88130000  0.72055000  0.47628000  1
