# generated using pymatgen
data_C7(NO12)2
_symmetry_space_group_name_H-M   'P 1'
_cell_length_a   13.92610000
_cell_length_b   14.41880000
_cell_length_c   17.37180000
_cell_angle_alpha   90.00000000
_cell_angle_beta   129.20480000
_cell_angle_gamma   90.00000000
_symmetry_Int_Tables_number   1
_chemical_formula_structural   C7(NO12)2
_chemical_formula_sum   'C28 N8 O96'
_cell_volume   2702.98954510
_cell_formula_units_Z   4
loop_
 _symmetry_equiv_pos_site_id
 _symmetry_equiv_pos_as_xyz
  1  'x, y, z'
loop_
 _atom_site_type_symbol
 _atom_site_label
 _atom_site_symmetry_multiplicity
 _atom_site_fract_x
 _atom_site_fract_y
 _atom_site_fract_z
 _atom_site_occupancy
  C  C0  1  0.04600000  0.51770000  0.11930000  1
  C  C1  1  0.95400000  0.01770000  0.38070000  1
  C  C2  1  0.95400000  0.48230000  0.88070000  1
  C  C3  1  0.04600000  0.98230000  0.61930000  1
  C  C4  1  0.26400000  0.45390000  0.31060000  1
  C  C5  1  0.73600000  0.95390000  0.18940000  1
  C  C6  1  0.73600000  0.54610000  0.68940000  1
  C  C7  1  0.26400000  0.04610000  0.81060000  1
  C  C8  1  0.12100000  0.33300000  0.28423000  1
  C  C9  1  0.87900000  0.83300000  0.21577000  1
  C  C10  1  0.87900000  0.66700000  0.71577000  1
  C  C11  1  0.12100000  0.16700000  0.78423000  1
  C  C12  1  0.99967000  0.31112000  0.21444000  1
  C  C13  1  0.00033000  0.81112000  0.28556000  1
  C  C14  1  0.00033000  0.68888000  0.78556000  1
  C  C15  1  0.99967000  0.18888000  0.71444000  1
  C  C16  1  0.94970000  0.37320000  0.13342000  1
  C  C17  1  0.05030000  0.87320000  0.36658000  1
  C  C18  1  0.05030000  0.62680000  0.86658000  1
  C  C19  1  0.94970000  0.12680000  0.63342000  1
  C  C20  1  0.94150000  0.23180000  0.22020000  1
  C  C21  1  0.05850000  0.73180000  0.27980000  1
  C  C22  1  0.05850000  0.76820000  0.77980000  1
  C  C23  1  0.94150000  0.26820000  0.72020000  1
  C  C24  1  0.06740000  0.51120000  0.04644000  1
  C  C25  1  0.93260000  0.01120000  0.45356000  1
  C  C26  1  0.93260000  0.48880000  0.95356000  1
  C  C27  1  0.06740000  0.98880000  0.54644000  1
  N  N28  1  0.04722000  0.43513000  0.16675000  1
  N  N29  1  0.95278000  0.93513000  0.33325000  1
  N  N30  1  0.95278000  0.56487000  0.83325000  1
  N  N31  1  0.04722000  0.06487000  0.66675000  1
  N  N32  1  0.14618000  0.40843000  0.25480000  1
  N  N33  1  0.85382000  0.90843000  0.24520000  1
  N  N34  1  0.85382000  0.59157000  0.74520000  1
  N  N35  1  0.14618000  0.09157000  0.75480000  1
  O  O36  1  0.32143000  0.52410000  0.09405000  1
  O  O37  1  0.67857000  0.02410000  0.40595000  1
  O  O38  1  0.67857000  0.47590000  0.90595000  1
  O  O39  1  0.32143000  0.97590000  0.59405000  1
  O  O40  1  0.47526000  0.41394000  0.09868000  1
  O  O41  1  0.52474000  0.91394000  0.40132000  1
  O  O42  1  0.52474000  0.58606000  0.90132000  1
  O  O43  1  0.47526000  0.08606000  0.59868000  1
  O  O44  1  0.25568000  0.05165000  0.42988000  1
  O  O45  1  0.74432000  0.55165000  0.07012000  1
  O  O46  1  0.74432000  0.94835000  0.57012000  1
  O  O47  1  0.25568000  0.44835000  0.92988000  1
  O  O48  1  0.27620000  0.34747000  0.06437000  1
  O  O49  1  0.72380000  0.84747000  0.43563000  1
  O  O50  1  0.72380000  0.65253000  0.93563000  1
  O  O51  1  0.27620000  0.15253000  0.56437000  1
  O  O52  1  0.54541000  0.07988000  0.22108000  1
  O  O53  1  0.45459000  0.57988000  0.27892000  1
  O  O54  1  0.45459000  0.92012000  0.77892000  1
  O  O55  1  0.54541000  0.42012000  0.72108000  1
  O  O56  1  0.31167000  0.69638000  0.13049000  1
  O  O57  1  0.68833000  0.19638000  0.36951000  1
  O  O58  1  0.68833000  0.30362000  0.86951000  1
  O  O59  1  0.31167000  0.80362000  0.63049000  1
  O  O60  1  0.48623000  0.13297000  0.33106000  1
  O  O61  1  0.51377000  0.63297000  0.16894000  1
  O  O62  1  0.51377000  0.86703000  0.66894000  1
  O  O63  1  0.48623000  0.36703000  0.83106000  1
  O  O64  1  0.37748000  0.00791000  0.04458000  1
  O  O65  1  0.62252000  0.50791000  0.45542000  1
  O  O66  1  0.62252000  0.99209000  0.95542000  1
  O  O67  1  0.37748000  0.49209000  0.54458000  1
  O  O68  1  0.34005000  0.17204000  0.08801000  1
  O  O69  1  0.65995000  0.67204000  0.41199000  1
  O  O70  1  0.65995000  0.82796000  0.91199000  1
  O  O71  1  0.34005000  0.32796000  0.58801000  1
  O  O72  1  0.50727000  0.15034000  0.06433000  1
  O  O73  1  0.49273000  0.65034000  0.43567000  1
  O  O74  1  0.49273000  0.84966000  0.93567000  1
  O  O75  1  0.50727000  0.34966000  0.56433000  1
  O  O76  1  0.70175000  0.37448000  0.40540000  1
  O  O77  1  0.29825000  0.87448000  0.09460000  1
  O  O78  1  0.29825000  0.62552000  0.59460000  1
  O  O79  1  0.70175000  0.12552000  0.90540000  1
  O  O80  1  0.14700000  0.54598000  0.41952000  1
  O  O81  1  0.85300000  0.04598000  0.08048000  1
  O  O82  1  0.85300000  0.45402000  0.58048000  1
  O  O83  1  0.14700000  0.95402000  0.91952000  1
  O  O84  1  0.67603000  0.15459000  0.04094000  1
  O  O85  1  0.32397000  0.65459000  0.45906000  1
  O  O86  1  0.32397000  0.84541000  0.95906000  1
  O  O87  1  0.67603000  0.34541000  0.54094000  1
  O  O88  1  0.66321000  0.31639000  0.24494000  1
  O  O89  1  0.33679000  0.81639000  0.25506000  1
  O  O90  1  0.33679000  0.68361000  0.75506000  1
  O  O91  1  0.66321000  0.18361000  0.74494000  1
  O  O92  1  0.12014000  0.79008000  0.08102000  1
  O  O93  1  0.87986000  0.29008000  0.41898000  1
  O  O94  1  0.87986000  0.20992000  0.91898000  1
  O  O95  1  0.12014000  0.70992000  0.58102000  1
  O  O96  1  0.70146000  0.46115000  0.17624000  1
  O  O97  1  0.29854000  0.96115000  0.32376000  1
  O  O98  1  0.29854000  0.53885000  0.82376000  1
  O  O99  1  0.70146000  0.03885000  0.67624000  1
  O  O100  1  0.60404000  0.30937000  0.06910000  1
  O  O101  1  0.39596000  0.80937000  0.43090000  1
  O  O102  1  0.39596000  0.69063000  0.93090000  1
  O  O103  1  0.60404000  0.19063000  0.56910000  1
  O  O104  1  0.28810000  0.14364000  0.31702000  1
  O  O105  1  0.71190000  0.64364000  0.18298000  1
  O  O106  1  0.71190000  0.85636000  0.68298000  1
  O  O107  1  0.28810000  0.35636000  0.81702000  1
  O  O108  1  0.08621000  0.04523000  0.23741000  1
  O  O109  1  0.91379000  0.54523000  0.26259000  1
  O  O110  1  0.91379000  0.95477000  0.76259000  1
  O  O111  1  0.08621000  0.45477000  0.73741000  1
  O  O112  1  0.31135000  0.25321000  0.20868000  1
  O  O113  1  0.68865000  0.75321000  0.29132000  1
  O  O114  1  0.68865000  0.74679000  0.79132000  1
  O  O115  1  0.31135000  0.24679000  0.70868000  1
  O  O116  1  0.45115000  0.27994000  0.40078000  1
  O  O117  1  0.54885000  0.77994000  0.09922000  1
  O  O118  1  0.54885000  0.72006000  0.59922000  1
  O  O119  1  0.45115000  0.22006000  0.90078000  1
  O  O120  1  0.11870000  0.22055000  0.02372000  1
  O  O121  1  0.88130000  0.72055000  0.47628000  1
  O  O122  1  0.88130000  0.77945000  0.97628000  1
  O  O123  1  0.11870000  0.27945000  0.52372000  1
  O  O124  1  0.99869000  0.41949000  0.40217000  1
  O  O125  1  0.00131000  0.91949000  0.09783000  1
  O  O126  1  0.00131000  0.58051000  0.59783000  1
  O  O127  1  0.99869000  0.08051000  0.90217000  1
  O  O128  1  0.02310000  0.09304000  0.06515000  1
  O  O129  1  0.97690000  0.59304000  0.43485000  1
  O  O130  1  0.97690000  0.90696000  0.93485000  1
  O  O131  1  0.02310000  0.40696000  0.56515000  1
