# generated using pymatgen
data_Si
_symmetry_space_group_name_H-M   'P 1'
_cell_length_a   13.92610000
_cell_length_b   14.41880000
_cell_length_c   17.37180000
_cell_angle_alpha   90.00000000
_cell_angle_beta   129.20480000
_cell_angle_gamma   90.00000000
_symmetry_Int_Tables_number   1
_chemical_formula_structural   Si
_chemical_formula_sum   Si48
_cell_volume   2702.98954510
_cell_formula_units_Z   48
loop_
 _symmetry_equiv_pos_site_id
 _symmetry_equiv_pos_as_xyz
  1  'x, y, z'
loop_
 _atom_site_type_symbol
 _atom_site_label
 _atom_site_symmetry_multiplicity
 _atom_site_fract_x
 _atom_site_fract_y
 _atom_site_fract_z
 _atom_site_occupancy
  Si  Si0  1  0.33214000  0.43375000  0.04656000  1
  Si  Si1  1  0.66786000  0.93375000  0.45344000  1
  Si  Si2  1  0.66786000  0.56625000  0.95344000  1
  Si  Si3  1  0.33214000  0.06625000  0.54656000  1
  Si  Si4  1  0.59942000  0.10842000  0.33167000  1
  Si  Si5  1  0.40058000  0.60842000  0.16833000  1
  Si  Si6  1  0.40058000  0.89158000  0.66833000  1
  Si  Si7  1  0.59942000  0.39158000  0.83167000  1
  Si  Si8  1  0.44166000  0.10163000  0.10391000  1
  Si  Si9  1  0.55834000  0.60163000  0.39609000  1
  Si  Si10  1  0.55834000  0.89837000  0.89609000  1
  Si  Si11  1  0.44166000  0.39837000  0.60391000  1
  Si  Si12  1  0.28640000  0.57969000  0.50483000  1
  Si  Si13  1  0.71360000  0.07969000  0.99517000  1
  Si  Si14  1  0.71360000  0.42031000  0.49517000  1
  Si  Si15  1  0.28640000  0.92031000  0.00483000  1
  Si  Si16  1  0.26647000  0.79398000  0.13969000  1
  Si  Si17  1  0.73353000  0.29398000  0.36031000  1
  Si  Si18  1  0.73353000  0.20602000  0.86031000  1
  Si  Si19  1  0.26647000  0.70602000  0.63969000  1
  Si  Si20  1  0.61097000  0.37489000  0.14682000  1
  Si  Si21  1  0.38903000  0.87489000  0.35318000  1
  Si  Si22  1  0.38903000  0.62511000  0.85318000  1
  Si  Si23  1  0.61097000  0.12511000  0.64682000  1
  Si  Si24  1  0.23307000  0.05076000  0.32719000  1
  Si  Si25  1  0.76693000  0.55076000  0.17281000  1
  Si  Si26  1  0.76693000  0.94924000  0.67281000  1
  Si  Si27  1  0.23307000  0.44924000  0.82719000  1
  Si  Si28  1  0.38402000  0.20309000  0.31387000  1
  Si  Si29  1  0.61598000  0.70309000  0.18613000  1
  Si  Si30  1  0.61598000  0.79691000  0.68613000  1
  Si  Si31  1  0.38402000  0.29691000  0.81387000  1
  Si  Si32  1  0.26193000  0.24784000  0.09636000  1
  Si  Si33  1  0.73807000  0.74784000  0.40364000  1
  Si  Si34  1  0.73807000  0.75216000  0.90364000  1
  Si  Si35  1  0.26193000  0.25216000  0.59636000  1
  Si  Si36  1  0.00627000  0.34921000  0.47828000  1
  Si  Si37  1  0.99373000  0.84921000  0.02172000  1
  Si  Si38  1  0.99373000  0.65079000  0.52172000  1
  Si  Si39  1  0.00627000  0.15079000  0.97828000  1
  Si  Si40  1  0.00922000  0.52598000  0.37978000  1
  Si  Si41  1  0.99078000  0.02598000  0.12022000  1
  Si  Si42  1  0.99078000  0.47402000  0.62022000  1
  Si  Si43  1  0.00922000  0.97402000  0.87978000  1
  Si  Si44  1  0.55942000  0.20761000  0.01890000  1
  Si  Si45  1  0.44058000  0.70761000  0.48110000  1
  Si  Si46  1  0.44058000  0.79239000  0.98110000  1
  Si  Si47  1  0.55942000  0.29239000  0.51890000  1
