# generated using pymatgen
data_Si
_symmetry_space_group_name_H-M   'P 1'
_cell_length_a   13.87610000
_cell_length_b   35.74500000
_cell_length_c   22.48690000
_cell_angle_alpha   90.00000000
_cell_angle_beta   90.00000000
_cell_angle_gamma   90.00000000
_symmetry_Int_Tables_number   1
_chemical_formula_structural   Si
_chemical_formula_sum   Si200
_cell_volume   11153.52926060
_cell_formula_units_Z   200
loop_
 _symmetry_equiv_pos_site_id
 _symmetry_equiv_pos_as_xyz
  1  'x, y, z'
loop_
 _atom_site_type_symbol
 _atom_site_label
 _atom_site_symmetry_multiplicity
 _atom_site_fract_x
 _atom_site_fract_y
 _atom_site_fract_z
 _atom_site_occupancy
  Si  Si0  1  0.19660000  0.07460000  0.37270000  1
  Si  Si1  1  0.19660000  0.57460000  0.87270000  1
  Si  Si2  1  0.69660000  0.57460000  0.37270000  1
  Si  Si3  1  0.69660000  0.07460000  0.87270000  1
  Si  Si4  1  0.19660000  0.92540000  0.62730000  1
  Si  Si5  1  0.19660000  0.42540000  0.12730000  1
  Si  Si6  1  0.69660000  0.42540000  0.62730000  1
  Si  Si7  1  0.69660000  0.92540000  0.12730000  1
  Si  Si8  1  0.80340000  0.07460000  0.62730000  1
  Si  Si9  1  0.80340000  0.57460000  0.12730000  1
  Si  Si10  1  0.30340000  0.57460000  0.62730000  1
  Si  Si11  1  0.30340000  0.07460000  0.12730000  1
  Si  Si12  1  0.80340000  0.92540000  0.37270000  1
  Si  Si13  1  0.80340000  0.42540000  0.87270000  1
  Si  Si14  1  0.30340000  0.42540000  0.37270000  1
  Si  Si15  1  0.30340000  0.92540000  0.87270000  1
  Si  Si16  1  0.80340000  0.92540000  0.62730000  1
  Si  Si17  1  0.80340000  0.42540000  0.12730000  1
  Si  Si18  1  0.30340000  0.42540000  0.62730000  1
  Si  Si19  1  0.30340000  0.92540000  0.12730000  1
  Si  Si20  1  0.80340000  0.07460000  0.37270000  1
  Si  Si21  1  0.80340000  0.57460000  0.87270000  1
  Si  Si22  1  0.30340000  0.57460000  0.37270000  1
  Si  Si23  1  0.30340000  0.07460000  0.87270000  1
  Si  Si24  1  0.19660000  0.92540000  0.37270000  1
  Si  Si25  1  0.19660000  0.42540000  0.87270000  1
  Si  Si26  1  0.69660000  0.42540000  0.37270000  1
  Si  Si27  1  0.69660000  0.92540000  0.87270000  1
  Si  Si28  1  0.19660000  0.07460000  0.62730000  1
  Si  Si29  1  0.19660000  0.57460000  0.12730000  1
  Si  Si30  1  0.69660000  0.57460000  0.62730000  1
  Si  Si31  1  0.69660000  0.07460000  0.12730000  1
  Si  Si32  1  0.21070000  0.14510000  0.18420000  1
  Si  Si33  1  0.21070000  0.64510000  0.68420000  1
  Si  Si34  1  0.71070000  0.64510000  0.18420000  1
  Si  Si35  1  0.71070000  0.14510000  0.68420000  1
  Si  Si36  1  0.21070000  0.85490000  0.81580000  1
  Si  Si37  1  0.21070000  0.35490000  0.31580000  1
  Si  Si38  1  0.71070000  0.35490000  0.81580000  1
  Si  Si39  1  0.71070000  0.85490000  0.31580000  1
  Si  Si40  1  0.78930000  0.14510000  0.81580000  1
  Si  Si41  1  0.78930000  0.64510000  0.31580000  1
  Si  Si42  1  0.28930000  0.64510000  0.81580000  1
  Si  Si43  1  0.28930000  0.14510000  0.31580000  1
  Si  Si44  1  0.78930000  0.85490000  0.18420000  1
  Si  Si45  1  0.78930000  0.35490000  0.68420000  1
  Si  Si46  1  0.28930000  0.35490000  0.18420000  1
  Si  Si47  1  0.28930000  0.85490000  0.68420000  1
  Si  Si48  1  0.78930000  0.85490000  0.81580000  1
  Si  Si49  1  0.78930000  0.35490000  0.31580000  1
  Si  Si50  1  0.28930000  0.35490000  0.81580000  1
  Si  Si51  1  0.28930000  0.85490000  0.31580000  1
  Si  Si52  1  0.78930000  0.14510000  0.18420000  1
  Si  Si53  1  0.78930000  0.64510000  0.68420000  1
  Si  Si54  1  0.28930000  0.64510000  0.18420000  1
  Si  Si55  1  0.28930000  0.14510000  0.68420000  1
  Si  Si56  1  0.21070000  0.85490000  0.18420000  1
  Si  Si57  1  0.21070000  0.35490000  0.68420000  1
  Si  Si58  1  0.71070000  0.35490000  0.18420000  1
  Si  Si59  1  0.71070000  0.85490000  0.68420000  1
  Si  Si60  1  0.21070000  0.14510000  0.81580000  1
  Si  Si61  1  0.21070000  0.64510000  0.31580000  1
  Si  Si62  1  0.71070000  0.64510000  0.81580000  1
  Si  Si63  1  0.71070000  0.14510000  0.31580000  1
  Si  Si64  1  0.18780000  0.21320000  0.38020000  1
  Si  Si65  1  0.18780000  0.71320000  0.88020000  1
  Si  Si66  1  0.68780000  0.71320000  0.38020000  1
  Si  Si67  1  0.68780000  0.21320000  0.88020000  1
  Si  Si68  1  0.18780000  0.78680000  0.61980000  1
  Si  Si69  1  0.18780000  0.28680000  0.11980000  1
  Si  Si70  1  0.68780000  0.28680000  0.61980000  1
  Si  Si71  1  0.68780000  0.78680000  0.11980000  1
  Si  Si72  1  0.81220000  0.21320000  0.61980000  1
  Si  Si73  1  0.81220000  0.71320000  0.11980000  1
  Si  Si74  1  0.31220000  0.71320000  0.61980000  1
  Si  Si75  1  0.31220000  0.21320000  0.11980000  1
  Si  Si76  1  0.81220000  0.78680000  0.38020000  1
  Si  Si77  1  0.81220000  0.28680000  0.88020000  1
  Si  Si78  1  0.31220000  0.28680000  0.38020000  1
  Si  Si79  1  0.31220000  0.78680000  0.88020000  1
  Si  Si80  1  0.81220000  0.78680000  0.61980000  1
  Si  Si81  1  0.81220000  0.28680000  0.11980000  1
  Si  Si82  1  0.31220000  0.28680000  0.61980000  1
  Si  Si83  1  0.31220000  0.78680000  0.11980000  1
  Si  Si84  1  0.81220000  0.21320000  0.38020000  1
  Si  Si85  1  0.81220000  0.71320000  0.88020000  1
  Si  Si86  1  0.31220000  0.71320000  0.38020000  1
  Si  Si87  1  0.31220000  0.21320000  0.88020000  1
  Si  Si88  1  0.18780000  0.78680000  0.38020000  1
  Si  Si89  1  0.18780000  0.28680000  0.88020000  1
  Si  Si90  1  0.68780000  0.28680000  0.38020000  1
  Si  Si91  1  0.68780000  0.78680000  0.88020000  1
  Si  Si92  1  0.18780000  0.21320000  0.61980000  1
  Si  Si93  1  0.18780000  0.71320000  0.11980000  1
  Si  Si94  1  0.68780000  0.71320000  0.61980000  1
  Si  Si95  1  0.68780000  0.21320000  0.11980000  1
  Si  Si96  1  0.11040000  0.17610000  0.50000000  1
  Si  Si97  1  0.11040000  0.67610000  0.00000000  1
  Si  Si98  1  0.61040000  0.67610000  0.50000000  1
  Si  Si99  1  0.61040000  0.17610000  0.00000000  1
  Si  Si100  1  0.11040000  0.82390000  0.50000000  1
  Si  Si101  1  0.11040000  0.32390000  0.00000000  1
  Si  Si102  1  0.61040000  0.32390000  0.50000000  1
  Si  Si103  1  0.61040000  0.82390000  0.00000000  1
  Si  Si104  1  0.88960000  0.17610000  0.50000000  1
  Si  Si105  1  0.88960000  0.67610000  0.00000000  1
  Si  Si106  1  0.38960000  0.67610000  0.50000000  1
  Si  Si107  1  0.38960000  0.17610000  0.00000000  1
  Si  Si108  1  0.88960000  0.82390000  0.50000000  1
  Si  Si109  1  0.88960000  0.32390000  0.00000000  1
  Si  Si110  1  0.38960000  0.32390000  0.50000000  1
  Si  Si111  1  0.38960000  0.82390000  0.00000000  1
  Si  Si112  1  0.11090000  0.41390000  0.00000000  1
  Si  Si113  1  0.11090000  0.91390000  0.50000000  1
  Si  Si114  1  0.61090000  0.91390000  0.00000000  1
  Si  Si115  1  0.61090000  0.41390000  0.50000000  1
  Si  Si116  1  0.11090000  0.58610000  0.00000000  1
  Si  Si117  1  0.11090000  0.08610000  0.50000000  1
  Si  Si118  1  0.61090000  0.08610000  0.00000000  1
  Si  Si119  1  0.61090000  0.58610000  0.50000000  1
  Si  Si120  1  0.88910000  0.41390000  0.00000000  1
  Si  Si121  1  0.88910000  0.91390000  0.50000000  1
  Si  Si122  1  0.38910000  0.91390000  0.00000000  1
  Si  Si123  1  0.38910000  0.41390000  0.50000000  1
  Si  Si124  1  0.88910000  0.58610000  0.00000000  1
  Si  Si125  1  0.88910000  0.08610000  0.50000000  1
  Si  Si126  1  0.38910000  0.08610000  0.00000000  1
  Si  Si127  1  0.38910000  0.58610000  0.50000000  1
  Si  Si128  1  0.21190000  0.00000000  0.18250000  1
  Si  Si129  1  0.21190000  0.50000000  0.68250000  1
  Si  Si130  1  0.71190000  0.50000000  0.18250000  1
  Si  Si131  1  0.71190000  0.00000000  0.68250000  1
  Si  Si132  1  0.21190000  0.00000000  0.81750000  1
  Si  Si133  1  0.21190000  0.50000000  0.31750000  1
  Si  Si134  1  0.71190000  0.50000000  0.81750000  1
  Si  Si135  1  0.71190000  0.00000000  0.31750000  1
  Si  Si136  1  0.78810000  0.00000000  0.81750000  1
  Si  Si137  1  0.78810000  0.50000000  0.31750000  1
  Si  Si138  1  0.28810000  0.50000000  0.81750000  1
  Si  Si139  1  0.28810000  0.00000000  0.31750000  1
  Si  Si140  1  0.78810000  0.00000000  0.18250000  1
  Si  Si141  1  0.78810000  0.50000000  0.68250000  1
  Si  Si142  1  0.28810000  0.50000000  0.18250000  1
  Si  Si143  1  0.28810000  0.00000000  0.68250000  1
  Si  Si144  1  0.00000000  0.07560000  0.29870000  1
  Si  Si145  1  0.00000000  0.57560000  0.79870000  1
  Si  Si146  1  0.50000000  0.57560000  0.29870000  1
  Si  Si147  1  0.50000000  0.07560000  0.79870000  1
  Si  Si148  1  0.00000000  0.92440000  0.70130000  1
  Si  Si149  1  0.00000000  0.42440000  0.20130000  1
  Si  Si150  1  0.50000000  0.42440000  0.70130000  1
  Si  Si151  1  0.50000000  0.92440000  0.20130000  1
  Si  Si152  1  0.00000000  0.07560000  0.70130000  1
  Si  Si153  1  0.00000000  0.57560000  0.20130000  1
  Si  Si154  1  0.50000000  0.57560000  0.70130000  1
  Si  Si155  1  0.50000000  0.07560000  0.20130000  1
  Si  Si156  1  0.00000000  0.92440000  0.29870000  1
  Si  Si157  1  0.00000000  0.42440000  0.79870000  1
  Si  Si158  1  0.50000000  0.42440000  0.29870000  1
  Si  Si159  1  0.50000000  0.92440000  0.79870000  1
  Si  Si160  1  0.00000000  0.14970000  0.22290000  1
  Si  Si161  1  0.00000000  0.64970000  0.72290000  1
  Si  Si162  1  0.50000000  0.64970000  0.22290000  1
  Si  Si163  1  0.50000000  0.14970000  0.72290000  1
  Si  Si164  1  0.00000000  0.85030000  0.77710000  1
  Si  Si165  1  0.00000000  0.35030000  0.27710000  1
  Si  Si166  1  0.50000000  0.35030000  0.77710000  1
  Si  Si167  1  0.50000000  0.85030000  0.27710000  1
  Si  Si168  1  0.00000000  0.14970000  0.77710000  1
  Si  Si169  1  0.00000000  0.64970000  0.27710000  1
  Si  Si170  1  0.50000000  0.64970000  0.77710000  1
  Si  Si171  1  0.50000000  0.14970000  0.27710000  1
  Si  Si172  1  0.00000000  0.85030000  0.22290000  1
  Si  Si173  1  0.00000000  0.35030000  0.72290000  1
  Si  Si174  1  0.50000000  0.35030000  0.22290000  1
  Si  Si175  1  0.50000000  0.85030000  0.72290000  1
  Si  Si176  1  0.00000000  0.22050000  0.30390000  1
  Si  Si177  1  0.00000000  0.72050000  0.80390000  1
  Si  Si178  1  0.50000000  0.72050000  0.30390000  1
  Si  Si179  1  0.50000000  0.22050000  0.80390000  1
  Si  Si180  1  0.00000000  0.77950000  0.69610000  1
  Si  Si181  1  0.00000000  0.27950000  0.19610000  1
  Si  Si182  1  0.50000000  0.27950000  0.69610000  1
  Si  Si183  1  0.50000000  0.77950000  0.19610000  1
  Si  Si184  1  0.00000000  0.22050000  0.69610000  1
  Si  Si185  1  0.00000000  0.72050000  0.19610000  1
  Si  Si186  1  0.50000000  0.72050000  0.69610000  1
  Si  Si187  1  0.50000000  0.22050000  0.19610000  1
  Si  Si188  1  0.00000000  0.77950000  0.30390000  1
  Si  Si189  1  0.00000000  0.27950000  0.80390000  1
  Si  Si190  1  0.50000000  0.27950000  0.30390000  1
  Si  Si191  1  0.50000000  0.77950000  0.80390000  1
  Si  Si192  1  0.00000000  0.00000000  0.22190000  1
  Si  Si193  1  0.00000000  0.50000000  0.72190000  1
  Si  Si194  1  0.50000000  0.50000000  0.22190000  1
  Si  Si195  1  0.50000000  0.00000000  0.72190000  1
  Si  Si196  1  0.00000000  0.00000000  0.77810000  1
  Si  Si197  1  0.00000000  0.50000000  0.27810000  1
  Si  Si198  1  0.50000000  0.50000000  0.77810000  1
  Si  Si199  1  0.50000000  0.00000000  0.27810000  1
