# generated using pymatgen
data_SiO4
_symmetry_space_group_name_H-M   'P 1'
_cell_length_a   10.45000000
_cell_length_b   15.02800000
_cell_length_c   8.95400000
_cell_angle_alpha   90.00000000
_cell_angle_beta   105.64000000
_cell_angle_gamma   90.00000000
_symmetry_Int_Tables_number   1
_chemical_formula_structural   SiO4
_chemical_formula_sum   'Si1 O4'
_cell_volume   1354.09581150
_cell_formula_units_Z   1
loop_
 _symmetry_equiv_pos_site_id
 _symmetry_equiv_pos_as_xyz
  1  'x, y, z'
loop_
 _atom_site_type_symbol
 _atom_site_label
 _atom_site_symmetry_multiplicity
 _atom_site_fract_x
 _atom_site_fract_y
 _atom_site_fract_z
 _atom_site_occupancy
  Si  Si0  1  0.19330000  0.89790000  0.66830000  1
  O  O1  1  0.30940000  0.83590000  0.77150000  1
  O  O2  1  0.06330000  0.88950000  0.73140000  1
  O  O3  1  0.15770000  0.86610000  0.49020000  1
  O  O4  1  0.24190000  1.00000000  0.68040000  1
