# generated using pymatgen
data_O2
_symmetry_space_group_name_H-M   'P 1'
_cell_length_a   10.45000000
_cell_length_b   15.02800000
_cell_length_c   8.95400000
_cell_angle_alpha   90.00000000
_cell_angle_beta   105.64000000
_cell_angle_gamma   90.00000000
_symmetry_Int_Tables_number   1
_chemical_formula_structural   O2
_chemical_formula_sum   O48
_cell_volume   1354.09581150
_cell_formula_units_Z   24
loop_
 _symmetry_equiv_pos_site_id
 _symmetry_equiv_pos_as_xyz
  1  'x, y, z'
loop_
 _atom_site_type_symbol
 _atom_site_label
 _atom_site_symmetry_multiplicity
 _atom_site_fract_x
 _atom_site_fract_y
 _atom_site_fract_z
 _atom_site_occupancy
  O  O0  1  0.50000000  0.22660000  0.00000000  1
  O  O1  1  0.00000000  0.72660000  0.00000000  1
  O  O2  1  0.50000000  0.77340000  0.00000000  1
  O  O3  1  0.00000000  0.27340000  0.00000000  1
  O  O4  1  0.30940000  0.16410000  0.77150000  1
  O  O5  1  0.80940000  0.66410000  0.77150000  1
  O  O6  1  0.69060000  0.16410000  0.22850000  1
  O  O7  1  0.19060000  0.66410000  0.22850000  1
  O  O8  1  0.69060000  0.83590000  0.22850000  1
  O  O9  1  0.19060000  0.33590000  0.22850000  1
  O  O10  1  0.30940000  0.83590000  0.77150000  1
  O  O11  1  0.80940000  0.33590000  0.77150000  1
  O  O12  1  0.34670000  0.33670000  0.80110000  1
  O  O13  1  0.84670000  0.83670000  0.80110000  1
  O  O14  1  0.65330000  0.33670000  0.19890000  1
  O  O15  1  0.15330000  0.83670000  0.19890000  1
  O  O16  1  0.65330000  0.66330000  0.19890000  1
  O  O17  1  0.15330000  0.16330000  0.19890000  1
  O  O18  1  0.34670000  0.66330000  0.80110000  1
  O  O19  1  0.84670000  0.16330000  0.80110000  1
  O  O20  1  0.25000000  0.25000000  0.00000000  1
  O  O21  1  0.75000000  0.75000000  0.00000000  1
  O  O22  1  0.75000000  0.25000000  0.00000000  1
  O  O23  1  0.25000000  0.75000000  0.00000000  1
  O  O24  1  0.43670000  0.38950000  0.26860000  1
  O  O25  1  0.93670000  0.88950000  0.26860000  1
  O  O26  1  0.56330000  0.38950000  0.73140000  1
  O  O27  1  0.06330000  0.88950000  0.73140000  1
  O  O28  1  0.56330000  0.61050000  0.73140000  1
  O  O29  1  0.06330000  0.11050000  0.73140000  1
  O  O30  1  0.43670000  0.61050000  0.26860000  1
  O  O31  1  0.93670000  0.11050000  0.26860000  1
  O  O32  1  0.34230000  0.36610000  0.50980000  1
  O  O33  1  0.84230000  0.86610000  0.50980000  1
  O  O34  1  0.65770000  0.36610000  0.49020000  1
  O  O35  1  0.15770000  0.86610000  0.49020000  1
  O  O36  1  0.65770000  0.63390000  0.49020000  1
  O  O37  1  0.15770000  0.13390000  0.49020000  1
  O  O38  1  0.34230000  0.63390000  0.50980000  1
  O  O39  1  0.84230000  0.13390000  0.50980000  1
  O  O40  1  0.25810000  0.50000000  0.31960000  1
  O  O41  1  0.75810000  0.00000000  0.31960000  1
  O  O42  1  0.74190000  0.50000000  0.68040000  1
  O  O43  1  0.24190000  0.00000000  0.68040000  1
  O  O44  1  0.36320000  0.50000000  0.70350000  1
  O  O45  1  0.86320000  0.00000000  0.70350000  1
  O  O46  1  0.63680000  0.50000000  0.29650000  1
  O  O47  1  0.13680000  0.00000000  0.29650000  1
