# generated using pymatgen
data_SiO4
_symmetry_space_group_name_H-M   'P 1'
_cell_length_a   19.03100000
_cell_length_b   19.03100000
_cell_length_c   14.10100000
_cell_angle_alpha   90.00000000
_cell_angle_beta   90.00000000
_cell_angle_gamma   120.00000000
_symmetry_Int_Tables_number   1
_chemical_formula_structural   SiO4
_chemical_formula_sum   'Si1 O4'
_cell_volume   4422.86580747
_cell_formula_units_Z   1
loop_
 _symmetry_equiv_pos_site_id
 _symmetry_equiv_pos_as_xyz
  1  'x, y, z'
loop_
 _atom_site_type_symbol
 _atom_site_label
 _atom_site_symmetry_multiplicity
 _atom_site_fract_x
 _atom_site_fract_y
 _atom_site_fract_z
 _atom_site_occupancy
  Si  Si0  1  0.43590000  0.71800000  0.89440000  1
  O  O1  1  0.50600000  0.75300000  0.81500000  1
  O  O2  1  0.47330000  0.73670000  1.00000000  1
  O  O3  1  0.37900000  0.75790000  0.88240000  1
  O  O4  1  0.37890000  0.62100000  0.88240000  1
