# generated using pymatgen
data_O2
_symmetry_space_group_name_H-M   'P 1'
_cell_length_a   14.14880000
_cell_length_b   35.70820000
_cell_length_c   14.07700000
_cell_angle_alpha   90.00000000
_cell_angle_beta   90.00000000
_cell_angle_gamma   90.00000000
_symmetry_Int_Tables_number   1
_chemical_formula_structural   O2
_chemical_formula_sum   O184
_cell_volume   7112.09709211
_cell_formula_units_Z   92
loop_
 _symmetry_equiv_pos_site_id
 _symmetry_equiv_pos_as_xyz
  1  'x, y, z'
loop_
 _atom_site_type_symbol
 _atom_site_label
 _atom_site_symmetry_multiplicity
 _atom_site_fract_x
 _atom_site_fract_y
 _atom_site_fract_z
 _atom_site_occupancy
  O  O0  1  0.00000000  0.71980000  0.15690000  1
  O  O1  1  0.50000000  0.21980000  0.15690000  1
  O  O2  1  0.00000000  0.28020000  0.65690000  1
  O  O3  1  0.50000000  0.78020000  0.65690000  1
  O  O4  1  0.00000000  0.71980000  0.34310000  1
  O  O5  1  0.50000000  0.21980000  0.34310000  1
  O  O6  1  0.00000000  0.28020000  0.84310000  1
  O  O7  1  0.50000000  0.78020000  0.84310000  1
  O  O8  1  0.40740000  0.27230000  0.25000000  1
  O  O9  1  0.90740000  0.77230000  0.25000000  1
  O  O10  1  0.59260000  0.72770000  0.75000000  1
  O  O11  1  0.09260000  0.22770000  0.75000000  1
  O  O12  1  0.59260000  0.27230000  0.25000000  1
  O  O13  1  0.09260000  0.77230000  0.25000000  1
  O  O14  1  0.40740000  0.72770000  0.75000000  1
  O  O15  1  0.90740000  0.22770000  0.75000000  1
  O  O16  1  0.22090000  0.37280000  0.25000000  1
  O  O17  1  0.72090000  0.87280000  0.25000000  1
  O  O18  1  0.77910000  0.62720000  0.75000000  1
  O  O19  1  0.27910000  0.12720000  0.75000000  1
  O  O20  1  0.77910000  0.37280000  0.25000000  1
  O  O21  1  0.27910000  0.87280000  0.25000000  1
  O  O22  1  0.22090000  0.62720000  0.75000000  1
  O  O23  1  0.72090000  0.12720000  0.75000000  1
  O  O24  1  0.16880000  0.34520000  0.08400000  1
  O  O25  1  0.66880000  0.84520000  0.08400000  1
  O  O26  1  0.83120000  0.65480000  0.58400000  1
  O  O27  1  0.33120000  0.15480000  0.58400000  1
  O  O28  1  0.83120000  0.34520000  0.41600000  1
  O  O29  1  0.33120000  0.84520000  0.41600000  1
  O  O30  1  0.16880000  0.65480000  0.91600000  1
  O  O31  1  0.66880000  0.15480000  0.91600000  1
  O  O32  1  0.83120000  0.65480000  0.91600000  1
  O  O33  1  0.33120000  0.15480000  0.91600000  1
  O  O34  1  0.16880000  0.34520000  0.41600000  1
  O  O35  1  0.66880000  0.84520000  0.41600000  1
  O  O36  1  0.16880000  0.65480000  0.58400000  1
  O  O37  1  0.66880000  0.15480000  0.58400000  1
  O  O38  1  0.83120000  0.34520000  0.08400000  1
  O  O39  1  0.33120000  0.84520000  0.08400000  1
  O  O40  1  0.29640000  0.39790000  0.09110000  1
  O  O41  1  0.79640000  0.89790000  0.09110000  1
  O  O42  1  0.70360000  0.60210000  0.59110000  1
  O  O43  1  0.20360000  0.10210000  0.59110000  1
  O  O44  1  0.70360000  0.39790000  0.40890000  1
  O  O45  1  0.20360000  0.89790000  0.40890000  1
  O  O46  1  0.29640000  0.60210000  0.90890000  1
  O  O47  1  0.79640000  0.10210000  0.90890000  1
  O  O48  1  0.70360000  0.60210000  0.90890000  1
  O  O49  1  0.20360000  0.10210000  0.90890000  1
  O  O50  1  0.29640000  0.39790000  0.40890000  1
  O  O51  1  0.79640000  0.89790000  0.40890000  1
  O  O52  1  0.29640000  0.60210000  0.59110000  1
  O  O53  1  0.79640000  0.10210000  0.59110000  1
  O  O54  1  0.70360000  0.39790000  0.09110000  1
  O  O55  1  0.20360000  0.89790000  0.09110000  1
  O  O56  1  0.33830000  0.33060000  0.15680000  1
  O  O57  1  0.83830000  0.83060000  0.15680000  1
  O  O58  1  0.66170000  0.66940000  0.65680000  1
  O  O59  1  0.16170000  0.16940000  0.65680000  1
  O  O60  1  0.66170000  0.33060000  0.34320000  1
  O  O61  1  0.16170000  0.83060000  0.34320000  1
  O  O62  1  0.33830000  0.66940000  0.84320000  1
  O  O63  1  0.83830000  0.16940000  0.84320000  1
  O  O64  1  0.66170000  0.66940000  0.84320000  1
  O  O65  1  0.16170000  0.16940000  0.84320000  1
  O  O66  1  0.33830000  0.33060000  0.34320000  1
  O  O67  1  0.83830000  0.83060000  0.34320000  1
  O  O68  1  0.33830000  0.66940000  0.65680000  1
  O  O69  1  0.83830000  0.16940000  0.65680000  1
  O  O70  1  0.66170000  0.33060000  0.15680000  1
  O  O71  1  0.16170000  0.83060000  0.15680000  1
  O  O72  1  0.14250000  0.04840000  0.25000000  1
  O  O73  1  0.64250000  0.54840000  0.25000000  1
  O  O74  1  0.85750000  0.95160000  0.75000000  1
  O  O75  1  0.35750000  0.45160000  0.75000000  1
  O  O76  1  0.85750000  0.04840000  0.25000000  1
  O  O77  1  0.35750000  0.54840000  0.25000000  1
  O  O78  1  0.14250000  0.95160000  0.75000000  1
  O  O79  1  0.64250000  0.45160000  0.75000000  1
  O  O80  1  0.17330000  0.08250000  0.08690000  1
  O  O81  1  0.67330000  0.58250000  0.08690000  1
  O  O82  1  0.82670000  0.91750000  0.58690000  1
  O  O83  1  0.32670000  0.41750000  0.58690000  1
  O  O84  1  0.82670000  0.08250000  0.41310000  1
  O  O85  1  0.32670000  0.58250000  0.41310000  1
  O  O86  1  0.17330000  0.91750000  0.91310000  1
  O  O87  1  0.67330000  0.41750000  0.91310000  1
  O  O88  1  0.82670000  0.91750000  0.91310000  1
  O  O89  1  0.32670000  0.41750000  0.91310000  1
  O  O90  1  0.17330000  0.08250000  0.41310000  1
  O  O91  1  0.67330000  0.58250000  0.41310000  1
  O  O92  1  0.17330000  0.91750000  0.58690000  1
  O  O93  1  0.67330000  0.41750000  0.58690000  1
  O  O94  1  0.82670000  0.08250000  0.08690000  1
  O  O95  1  0.32670000  0.58250000  0.08690000  1
  O  O96  1  0.12290000  0.01220000  0.08820000  1
  O  O97  1  0.62290000  0.51220000  0.08820000  1
  O  O98  1  0.87710000  0.98780000  0.58820000  1
  O  O99  1  0.37710000  0.48780000  0.58820000  1
  O  O100  1  0.87710000  0.01220000  0.41180000  1
  O  O101  1  0.37710000  0.51220000  0.41180000  1
  O  O102  1  0.12290000  0.98780000  0.91180000  1
  O  O103  1  0.62290000  0.48780000  0.91180000  1
  O  O104  1  0.87710000  0.98780000  0.91180000  1
  O  O105  1  0.37710000  0.48780000  0.91180000  1
  O  O106  1  0.12290000  0.01220000  0.41180000  1
  O  O107  1  0.62290000  0.51220000  0.41180000  1
  O  O108  1  0.12290000  0.98780000  0.58820000  1
  O  O109  1  0.62290000  0.48780000  0.58820000  1
  O  O110  1  0.87710000  0.01220000  0.08820000  1
  O  O111  1  0.37710000  0.51220000  0.08820000  1
  O  O112  1  0.00000000  0.06440000  0.13650000  1
  O  O113  1  0.50000000  0.56440000  0.13650000  1
  O  O114  1  0.00000000  0.93560000  0.63650000  1
  O  O115  1  0.50000000  0.43560000  0.63650000  1
  O  O116  1  0.00000000  0.06440000  0.36350000  1
  O  O117  1  0.50000000  0.56440000  0.36350000  1
  O  O118  1  0.00000000  0.93560000  0.86350000  1
  O  O119  1  0.50000000  0.43560000  0.86350000  1
  O  O120  1  0.00000000  0.65710000  0.25000000  1
  O  O121  1  0.50000000  0.15710000  0.25000000  1
  O  O122  1  0.00000000  0.34290000  0.75000000  1
  O  O123  1  0.50000000  0.84290000  0.75000000  1
  O  O124  1  0.59270000  0.16160000  0.08740000  1
  O  O125  1  0.09270000  0.66160000  0.08740000  1
  O  O126  1  0.40730000  0.83840000  0.58740000  1
  O  O127  1  0.90730000  0.33840000  0.58740000  1
  O  O128  1  0.40730000  0.16160000  0.41260000  1
  O  O129  1  0.90730000  0.66160000  0.41260000  1
  O  O130  1  0.59270000  0.83840000  0.91260000  1
  O  O131  1  0.09270000  0.33840000  0.91260000  1
  O  O132  1  0.40730000  0.83840000  0.91260000  1
  O  O133  1  0.90730000  0.33840000  0.91260000  1
  O  O134  1  0.59270000  0.16160000  0.41260000  1
  O  O135  1  0.09270000  0.66160000  0.41260000  1
  O  O136  1  0.59270000  0.83840000  0.58740000  1
  O  O137  1  0.09270000  0.33840000  0.58740000  1
  O  O138  1  0.40730000  0.16160000  0.08740000  1
  O  O139  1  0.90730000  0.66160000  0.08740000  1
  O  O140  1  0.00000000  0.83500000  0.25000000  1
  O  O141  1  0.50000000  0.33500000  0.25000000  1
  O  O142  1  0.00000000  0.16500000  0.75000000  1
  O  O143  1  0.50000000  0.66500000  0.75000000  1
  O  O144  1  0.25390000  0.03510000  0.97080000  1
  O  O145  1  0.75390000  0.53510000  0.97080000  1
  O  O146  1  0.74610000  0.96490000  0.47080000  1
  O  O147  1  0.24610000  0.46490000  0.47080000  1
  O  O148  1  0.74610000  0.03510000  0.52920000  1
  O  O149  1  0.24610000  0.53510000  0.52920000  1
  O  O150  1  0.25390000  0.96490000  0.02920000  1
  O  O151  1  0.75390000  0.46490000  0.02920000  1
  O  O152  1  0.74610000  0.96490000  0.02920000  1
  O  O153  1  0.24610000  0.46490000  0.02920000  1
  O  O154  1  0.25390000  0.03510000  0.52920000  1
  O  O155  1  0.75390000  0.53510000  0.52920000  1
  O  O156  1  0.25390000  0.96490000  0.47080000  1
  O  O157  1  0.75390000  0.46490000  0.47080000  1
  O  O158  1  0.74610000  0.03510000  0.97080000  1
  O  O159  1  0.24610000  0.53510000  0.97080000  1
  O  O160  1  0.34600000  0.09610000  0.02590000  1
  O  O161  1  0.84600000  0.59610000  0.02590000  1
  O  O162  1  0.65400000  0.90390000  0.52590000  1
  O  O163  1  0.15400000  0.40390000  0.52590000  1
  O  O164  1  0.65400000  0.09610000  0.47410000  1
  O  O165  1  0.15400000  0.59610000  0.47410000  1
  O  O166  1  0.34600000  0.90390000  0.97410000  1
  O  O167  1  0.84600000  0.40390000  0.97410000  1
  O  O168  1  0.65400000  0.90390000  0.97410000  1
  O  O169  1  0.15400000  0.40390000  0.97410000  1
  O  O170  1  0.34600000  0.09610000  0.47410000  1
  O  O171  1  0.84600000  0.59610000  0.47410000  1
  O  O172  1  0.34600000  0.90390000  0.52590000  1
  O  O173  1  0.84600000  0.40390000  0.52590000  1
  O  O174  1  0.65400000  0.09610000  0.02590000  1
  O  O175  1  0.15400000  0.59610000  0.02590000  1
  O  O176  1  0.00000000  0.37320000  0.04530000  1
  O  O177  1  0.50000000  0.87320000  0.04530000  1
  O  O178  1  0.00000000  0.62680000  0.54530000  1
  O  O179  1  0.50000000  0.12680000  0.54530000  1
  O  O180  1  0.00000000  0.37320000  0.45470000  1
  O  O181  1  0.50000000  0.87320000  0.45470000  1
  O  O182  1  0.00000000  0.62680000  0.95470000  1
  O  O183  1  0.50000000  0.12680000  0.95470000  1
