# generated using pymatgen
data_Si
_symmetry_space_group_name_H-M   'P 1'
_cell_length_a   14.14880000
_cell_length_b   35.70820000
_cell_length_c   14.07700000
_cell_angle_alpha   90.00000000
_cell_angle_beta   90.00000000
_cell_angle_gamma   90.00000000
_symmetry_Int_Tables_number   1
_chemical_formula_structural   Si
_chemical_formula_sum   Si92
_cell_volume   7112.09709211
_cell_formula_units_Z   92
loop_
 _symmetry_equiv_pos_site_id
 _symmetry_equiv_pos_as_xyz
  1  'x, y, z'
loop_
 _atom_site_type_symbol
 _atom_site_label
 _atom_site_symmetry_multiplicity
 _atom_site_fract_x
 _atom_site_fract_y
 _atom_site_fract_z
 _atom_site_occupancy
  Si  Si0  1  0.25600000  0.36150000  0.14490000  1
  Si  Si1  1  0.75600000  0.86150000  0.14490000  1
  Si  Si2  1  0.74400000  0.63850000  0.64490000  1
  Si  Si3  1  0.24400000  0.13850000  0.64490000  1
  Si  Si4  1  0.74400000  0.36150000  0.35510000  1
  Si  Si5  1  0.24400000  0.86150000  0.35510000  1
  Si  Si6  1  0.25600000  0.63850000  0.85510000  1
  Si  Si7  1  0.75600000  0.13850000  0.85510000  1
  Si  Si8  1  0.74400000  0.63850000  0.85510000  1
  Si  Si9  1  0.24400000  0.13850000  0.85510000  1
  Si  Si10  1  0.25600000  0.36150000  0.35510000  1
  Si  Si11  1  0.75600000  0.86150000  0.35510000  1
  Si  Si12  1  0.25600000  0.63850000  0.64490000  1
  Si  Si13  1  0.75600000  0.13850000  0.64490000  1
  Si  Si14  1  0.74400000  0.36150000  0.14490000  1
  Si  Si15  1  0.24400000  0.86150000  0.14490000  1
  Si  Si16  1  0.10910000  0.05190000  0.14110000  1
  Si  Si17  1  0.60910000  0.55190000  0.14110000  1
  Si  Si18  1  0.89090000  0.94810000  0.64110000  1
  Si  Si19  1  0.39090000  0.44810000  0.64110000  1
  Si  Si20  1  0.89090000  0.05190000  0.35890000  1
  Si  Si21  1  0.39090000  0.55190000  0.35890000  1
  Si  Si22  1  0.10910000  0.94810000  0.85890000  1
  Si  Si23  1  0.60910000  0.44810000  0.85890000  1
  Si  Si24  1  0.89090000  0.94810000  0.85890000  1
  Si  Si25  1  0.39090000  0.44810000  0.85890000  1
  Si  Si26  1  0.10910000  0.05190000  0.35890000  1
  Si  Si27  1  0.60910000  0.55190000  0.35890000  1
  Si  Si28  1  0.10910000  0.94810000  0.64110000  1
  Si  Si29  1  0.60910000  0.44810000  0.64110000  1
  Si  Si30  1  0.89090000  0.05190000  0.14110000  1
  Si  Si31  1  0.39090000  0.55190000  0.14110000  1
  Si  Si32  1  0.24450000  0.07880000  0.99800000  1
  Si  Si33  1  0.74450000  0.57880000  0.99800000  1
  Si  Si34  1  0.75550000  0.92120000  0.49800000  1
  Si  Si35  1  0.25550000  0.42120000  0.49800000  1
  Si  Si36  1  0.75550000  0.07880000  0.50200000  1
  Si  Si37  1  0.25550000  0.57880000  0.50200000  1
  Si  Si38  1  0.24450000  0.92120000  0.00200000  1
  Si  Si39  1  0.74450000  0.42120000  0.00200000  1
  Si  Si40  1  0.75550000  0.92120000  0.00200000  1
  Si  Si41  1  0.25550000  0.42120000  0.00200000  1
  Si  Si42  1  0.24450000  0.07880000  0.50200000  1
  Si  Si43  1  0.74450000  0.57880000  0.50200000  1
  Si  Si44  1  0.24450000  0.92120000  0.49800000  1
  Si  Si45  1  0.74450000  0.42120000  0.49800000  1
  Si  Si46  1  0.75550000  0.07880000  0.99800000  1
  Si  Si47  1  0.25550000  0.57880000  0.99800000  1
  Si  Si48  1  0.10440000  0.36500000  0.00430000  1
  Si  Si49  1  0.60440000  0.86500000  0.00430000  1
  Si  Si50  1  0.89560000  0.63500000  0.50430000  1
  Si  Si51  1  0.39560000  0.13500000  0.50430000  1
  Si  Si52  1  0.89560000  0.36500000  0.49570000  1
  Si  Si53  1  0.39560000  0.86500000  0.49570000  1
  Si  Si54  1  0.10440000  0.63500000  0.99570000  1
  Si  Si55  1  0.60440000  0.13500000  0.99570000  1
  Si  Si56  1  0.89560000  0.63500000  0.99570000  1
  Si  Si57  1  0.39560000  0.13500000  0.99570000  1
  Si  Si58  1  0.10440000  0.36500000  0.49570000  1
  Si  Si59  1  0.60440000  0.86500000  0.49570000  1
  Si  Si60  1  0.10440000  0.63500000  0.50430000  1
  Si  Si61  1  0.60440000  0.13500000  0.50430000  1
  Si  Si62  1  0.89560000  0.36500000  0.00430000  1
  Si  Si63  1  0.39560000  0.86500000  0.00430000  1
  Si  Si64  1  0.39520000  0.31720000  0.25000000  1
  Si  Si65  1  0.89520000  0.81720000  0.25000000  1
  Si  Si66  1  0.60480000  0.68280000  0.75000000  1
  Si  Si67  1  0.10480000  0.18280000  0.75000000  1
  Si  Si68  1  0.60480000  0.31720000  0.25000000  1
  Si  Si69  1  0.10480000  0.81720000  0.25000000  1
  Si  Si70  1  0.39520000  0.68280000  0.75000000  1
  Si  Si71  1  0.89520000  0.18280000  0.75000000  1
  Si  Si72  1  0.00000000  0.67490000  0.14470000  1
  Si  Si73  1  0.50000000  0.17490000  0.14470000  1
  Si  Si74  1  0.00000000  0.32510000  0.64470000  1
  Si  Si75  1  0.50000000  0.82510000  0.64470000  1
  Si  Si76  1  0.00000000  0.67490000  0.35530000  1
  Si  Si77  1  0.50000000  0.17490000  0.35530000  1
  Si  Si78  1  0.00000000  0.32510000  0.85530000  1
  Si  Si79  1  0.50000000  0.82510000  0.85530000  1
  Si  Si80  1  0.18860000  0.00000000  0.00000000  1
  Si  Si81  1  0.68860000  0.50000000  0.00000000  1
  Si  Si82  1  0.81140000  0.00000000  0.50000000  1
  Si  Si83  1  0.31140000  0.50000000  0.50000000  1
  Si  Si84  1  0.81140000  0.00000000  0.00000000  1
  Si  Si85  1  0.31140000  0.50000000  0.00000000  1
  Si  Si86  1  0.18860000  0.00000000  0.50000000  1
  Si  Si87  1  0.68860000  0.50000000  0.50000000  1
  Si  Si88  1  0.00000000  0.74610000  0.25000000  1
  Si  Si89  1  0.50000000  0.24610000  0.25000000  1
  Si  Si90  1  0.00000000  0.25390000  0.75000000  1
  Si  Si91  1  0.50000000  0.75390000  0.75000000  1
