# generated using pymatgen
data_O2
_symmetry_space_group_name_H-M   'P 1'
_cell_length_a   12.93705000
_cell_length_b   12.93700000
_cell_length_c   10.03120000
_cell_angle_alpha   90.00000000
_cell_angle_beta   90.00000000
_cell_angle_gamma   120.00000000
_symmetry_Int_Tables_number   1
_chemical_formula_structural   O2
_chemical_formula_sum   O48
_cell_volume   1453.95965544
_cell_formula_units_Z   24
loop_
 _symmetry_equiv_pos_site_id
 _symmetry_equiv_pos_as_xyz
  1  'x, y, z'
loop_
 _atom_site_type_symbol
 _atom_site_label
 _atom_site_symmetry_multiplicity
 _atom_site_fract_x
 _atom_site_fract_y
 _atom_site_fract_z
 _atom_site_occupancy
  O  O0  1  0.09893000  0.19786000  0.32420000  1
  O  O1  1  0.80214000  0.90107000  0.32420000  1
  O  O2  1  0.09893000  0.90107000  0.32420000  1
  O  O3  1  0.90107000  0.80214000  0.67580000  1
  O  O4  1  0.19786000  0.09893000  0.67580000  1
  O  O5  1  0.90107000  0.09893000  0.67580000  1
  O  O6  1  0.03267000  0.35197000  0.25425000  1
  O  O7  1  0.64803000  0.68070000  0.25425000  1
  O  O8  1  0.31930000  0.96733000  0.25425000  1
  O  O9  1  0.64803000  0.96733000  0.25425000  1
  O  O10  1  0.03267000  0.68070000  0.25425000  1
  O  O11  1  0.31930000  0.35197000  0.25425000  1
  O  O12  1  0.96733000  0.64803000  0.74575000  1
  O  O13  1  0.35197000  0.31930000  0.74575000  1
  O  O14  1  0.68070000  0.03267000  0.74575000  1
  O  O15  1  0.35197000  0.03267000  0.74575000  1
  O  O16  1  0.96733000  0.31930000  0.74575000  1
  O  O17  1  0.68070000  0.64803000  0.74575000  1
  O  O18  1  0.87068000  0.12932000  0.30580000  1
  O  O19  1  0.87068000  0.74136000  0.30580000  1
  O  O20  1  0.25864000  0.12932000  0.30580000  1
  O  O21  1  0.12932000  0.87068000  0.69420000  1
  O  O22  1  0.12932000  0.25864000  0.69420000  1
  O  O23  1  0.74136000  0.87068000  0.69420000  1
  O  O24  1  0.00000000  0.27234000  0.50000000  1
  O  O25  1  0.72766000  0.72766000  0.50000000  1
  O  O26  1  0.27234000  0.00000000  0.50000000  1
  O  O27  1  0.72766000  0.00000000  0.50000000  1
  O  O28  1  0.00000000  0.72766000  0.50000000  1
  O  O29  1  0.27234000  0.27234000  0.50000000  1
  O  O30  1  0.13094000  0.56547000  0.14601000  1
  O  O31  1  0.43453000  0.56547000  0.14601000  1
  O  O32  1  0.43453000  0.86906000  0.14601000  1
  O  O33  1  0.86906000  0.43453000  0.85399000  1
  O  O34  1  0.56547000  0.43453000  0.85399000  1
  O  O35  1  0.56547000  0.13094000  0.85399000  1
  O  O36  1  0.00000000  0.37509000  0.00000000  1
  O  O37  1  0.62491000  0.62491000  0.00000000  1
  O  O38  1  0.37509000  0.00000000  0.00000000  1
  O  O39  1  0.62491000  0.00000000  0.00000000  1
  O  O40  1  0.00000000  0.62491000  0.00000000  1
  O  O41  1  0.37509000  0.37509000  0.00000000  1
  O  O42  1  0.20981000  0.41962000  0.08390000  1
  O  O43  1  0.58038000  0.79019000  0.08390000  1
  O  O44  1  0.20981000  0.79019000  0.08390000  1
  O  O45  1  0.79019000  0.58038000  0.91610000  1
  O  O46  1  0.41962000  0.20981000  0.91610000  1
  O  O47  1  0.79019000  0.20981000  0.91610000  1
