# generated using pymatgen
data_SiO4
_symmetry_space_group_name_H-M   'P 1'
_cell_length_a   7.41200000
_cell_length_b   8.64100000
_cell_length_c   17.18000000
_cell_angle_alpha   90.00000000
_cell_angle_beta   113.67800000
_cell_angle_gamma   90.00000000
_symmetry_Int_Tables_number   1
_chemical_formula_structural   SiO4
_chemical_formula_sum   'Si1 O4'
_cell_volume   1007.69988987
_cell_formula_units_Z   1
loop_
 _symmetry_equiv_pos_site_id
 _symmetry_equiv_pos_as_xyz
  1  'x, y, z'
loop_
 _atom_site_type_symbol
 _atom_site_label
 _atom_site_symmetry_multiplicity
 _atom_site_fract_x
 _atom_site_fract_y
 _atom_site_fract_z
 _atom_site_occupancy
  Si  Si0  1  0.68190000  0.60450000  0.44150000  1
  O  O1  1  0.87280000  0.71390000  0.48020000  1
  O  O2  1  0.68290000  0.48200000  0.51220000  1
  O  O3  1  0.48340000  0.70550000  0.41570000  1
  O  O4  1  0.67960000  0.51190000  0.35980000  1
