# generated using pymatgen
data_Si
_symmetry_space_group_name_H-M   'P 1'
_cell_length_a   7.41200000
_cell_length_b   8.64100000
_cell_length_c   17.18000000
_cell_angle_alpha   90.00000000
_cell_angle_beta   113.67800000
_cell_angle_gamma   90.00000000
_symmetry_Int_Tables_number   1
_chemical_formula_structural   Si
_chemical_formula_sum   Si18
_cell_volume   1007.69988987
_cell_formula_units_Z   18
loop_
 _symmetry_equiv_pos_site_id
 _symmetry_equiv_pos_as_xyz
  1  'x, y, z'
loop_
 _atom_site_type_symbol
 _atom_site_label
 _atom_site_symmetry_multiplicity
 _atom_site_fract_x
 _atom_site_fract_y
 _atom_site_fract_z
 _atom_site_occupancy
  Si  Si0  1  0.93480000  0.82160000  0.99400000  1
  Si  Si1  1  0.06520000  0.82160000  0.50600000  1
  Si  Si2  1  0.06520000  0.17840000  0.00600000  1
  Si  Si3  1  0.93480000  0.17840000  0.49400000  1
  Si  Si4  1  0.68190000  0.39550000  0.94150000  1
  Si  Si5  1  0.31810000  0.39550000  0.55850000  1
  Si  Si6  1  0.31810000  0.60450000  0.05850000  1
  Si  Si7  1  0.68190000  0.60450000  0.44150000  1
  Si  Si8  1  0.29340000  0.65400000  0.67680000  1
  Si  Si9  1  0.70660000  0.65400000  0.82320000  1
  Si  Si10  1  0.70660000  0.34600000  0.32320000  1
  Si  Si11  1  0.29340000  0.34600000  0.17680000  1
  Si  Si12  1  0.27690000  0.34950000  0.91710000  1
  Si  Si13  1  0.72310000  0.34950000  0.58290000  1
  Si  Si14  1  0.72310000  0.65050000  0.08290000  1
  Si  Si15  1  0.27690000  0.65050000  0.41710000  1
  Si  Si16  1  0.00000000  0.46980000  0.25000000  1
  Si  Si17  1  0.00000000  0.53020000  0.75000000  1
