# generated using pymatgen
data_O2
_symmetry_space_group_name_H-M   'P 1'
_cell_length_a   7.41200000
_cell_length_b   8.64100000
_cell_length_c   17.18000000
_cell_angle_alpha   90.00000000
_cell_angle_beta   113.67800000
_cell_angle_gamma   90.00000000
_symmetry_Int_Tables_number   1
_chemical_formula_structural   O2
_chemical_formula_sum   O36
_cell_volume   1007.69988987
_cell_formula_units_Z   18
loop_
 _symmetry_equiv_pos_site_id
 _symmetry_equiv_pos_as_xyz
  1  'x, y, z'
loop_
 _atom_site_type_symbol
 _atom_site_label
 _atom_site_symmetry_multiplicity
 _atom_site_fract_x
 _atom_site_fract_y
 _atom_site_fract_z
 _atom_site_occupancy
  O  O0  1  0.12720000  0.71390000  0.01980000  1
  O  O1  1  0.87280000  0.71390000  0.48020000  1
  O  O2  1  0.87280000  0.28610000  0.98020000  1
  O  O3  1  0.12720000  0.28610000  0.51980000  1
  O  O4  1  0.00000000  0.00000000  0.00000000  1
  O  O5  1  0.00000000  0.00000000  0.50000000  1
  O  O6  1  0.83280000  0.79270000  0.05980000  1
  O  O7  1  0.16720000  0.79270000  0.44020000  1
  O  O8  1  0.16720000  0.20730000  0.94020000  1
  O  O9  1  0.83280000  0.20730000  0.55980000  1
  O  O10  1  0.78140000  0.77900000  0.89920000  1
  O  O11  1  0.21860000  0.77900000  0.60080000  1
  O  O12  1  0.21860000  0.22100000  0.10080000  1
  O  O13  1  0.78140000  0.22100000  0.39920000  1
  O  O14  1  0.68290000  0.51800000  0.01220000  1
  O  O15  1  0.31710000  0.51800000  0.48780000  1
  O  O16  1  0.31710000  0.48200000  0.98780000  1
  O  O17  1  0.68290000  0.48200000  0.51220000  1
  O  O18  1  0.48340000  0.29450000  0.91570000  1
  O  O19  1  0.51660000  0.29450000  0.58430000  1
  O  O20  1  0.51660000  0.70550000  0.08430000  1
  O  O21  1  0.48340000  0.70550000  0.41570000  1
  O  O22  1  0.67960000  0.48810000  0.85980000  1
  O  O23  1  0.32040000  0.48810000  0.64020000  1
  O  O24  1  0.32040000  0.51190000  0.14020000  1
  O  O25  1  0.67960000  0.51190000  0.35980000  1
  O  O26  1  0.13130000  0.63800000  0.71670000  1
  O  O27  1  0.86870000  0.63800000  0.78330000  1
  O  O28  1  0.86870000  0.36200000  0.28330000  1
  O  O29  1  0.13130000  0.36200000  0.21670000  1
  O  O30  1  0.50000000  0.70770000  0.75000000  1
  O  O31  1  0.50000000  0.29230000  0.25000000  1
  O  O32  1  0.14120000  0.42090000  0.82580000  1
  O  O33  1  0.85880000  0.42090000  0.67420000  1
  O  O34  1  0.85880000  0.57910000  0.17420000  1
  O  O35  1  0.14120000  0.57910000  0.32580000  1
