# generated using pymatgen
data_SiO4
_symmetry_space_group_name_H-M   'P 1'
_cell_length_a   12.28100000
_cell_length_b   12.28100000
_cell_length_c   15.63200000
_cell_angle_alpha   90.00000000
_cell_angle_beta   90.00000000
_cell_angle_gamma   120.00000000
_symmetry_Int_Tables_number   1
_chemical_formula_structural   SiO4
_chemical_formula_sum   'Si1 O4'
_cell_volume   2041.79737342
_cell_formula_units_Z   1
loop_
 _symmetry_equiv_pos_site_id
 _symmetry_equiv_pos_as_xyz
  1  'x, y, z'
loop_
 _atom_site_type_symbol
 _atom_site_label
 _atom_site_symmetry_multiplicity
 _atom_site_fract_x
 _atom_site_fract_y
 _atom_site_fract_z
 _atom_site_occupancy
  Si  Si0  1  0.25630000  0.99750000  0.65470000  1
  O  O1  1  0.30040000  0.98300000  0.74880000  1
  O  O2  1  0.25880000  1.12940000  0.64790000  1
  O  O3  1  0.11580000  0.88420000  0.63680000  1
  O  O4  1  0.35030000  0.99410000  0.58410000  1
