# generated using pymatgen
data_SiO4
_symmetry_space_group_name_H-M   'P 1'
_cell_length_a   12.28100000
_cell_length_b   12.28100000
_cell_length_c   15.63200000
_cell_angle_alpha   90.00000000
_cell_angle_beta   90.00000000
_cell_angle_gamma   120.00000000
_symmetry_Int_Tables_number   1
_chemical_formula_structural   SiO4
_chemical_formula_sum   'Si1 O4'
_cell_volume   2041.79737342
_cell_formula_units_Z   1
loop_
 _symmetry_equiv_pos_site_id
 _symmetry_equiv_pos_as_xyz
  1  'x, y, z'
loop_
 _atom_site_type_symbol
 _atom_site_label
 _atom_site_symmetry_multiplicity
 _atom_site_fract_x
 _atom_site_fract_y
 _atom_site_fract_z
 _atom_site_occupancy
  Si  Si0  1  0.58750000  0.91740000  0.17240000  1
  O  O1  1  0.66040000  0.97700000  0.08400000  1
  O  O2  1  0.53720000  0.76860000  0.17320000  1
  O  O3  1  0.68260000  0.98300000  0.25120000  1
  O  O4  1  0.47080000  0.94160000  0.18130000  1
