# generated using pymatgen
data_SiO4
_symmetry_space_group_name_H-M   'P 1'
_cell_length_a   12.28100000
_cell_length_b   12.28100000
_cell_length_c   15.63200000
_cell_angle_alpha   90.00000000
_cell_angle_beta   90.00000000
_cell_angle_gamma   120.00000000
_symmetry_Int_Tables_number   1
_chemical_formula_structural   SiO4
_chemical_formula_sum   'Si1 O4'
_cell_volume   2041.79737342
_cell_formula_units_Z   1
loop_
 _symmetry_equiv_pos_site_id
 _symmetry_equiv_pos_as_xyz
  1  'x, y, z'
loop_
 _atom_site_type_symbol
 _atom_site_label
 _atom_site_symmetry_multiplicity
 _atom_site_fract_x
 _atom_site_fract_y
 _atom_site_fract_z
 _atom_site_occupancy
  Si  Si0  1  0.92230000  0.58550000  0.50000000  1
  O  O1  1  1.00590000  0.64970000  0.41590000  1
  O  O2  1  1.00590000  0.64970000  0.58410000  1
  O  O3  1  0.80350000  0.60710000  0.50000000  1
  O  O4  1  0.87450000  0.43730000  0.50000000  1
