# generated using pymatgen
data_O2
_symmetry_space_group_name_H-M   'P 1'
_cell_length_a   12.28100000
_cell_length_b   12.28100000
_cell_length_c   15.63200000
_cell_angle_alpha   90.00000000
_cell_angle_beta   90.00000000
_cell_angle_gamma   120.00000000
_symmetry_Int_Tables_number   1
_chemical_formula_structural   O2
_chemical_formula_sum   O76
_cell_volume   2041.79737342
_cell_formula_units_Z   38
loop_
 _symmetry_equiv_pos_site_id
 _symmetry_equiv_pos_as_xyz
  1  'x, y, z'
loop_
 _atom_site_type_symbol
 _atom_site_label
 _atom_site_symmetry_multiplicity
 _atom_site_fract_x
 _atom_site_fract_y
 _atom_site_fract_z
 _atom_site_occupancy
  O  O0  1  0.31660000  0.97700000  0.08400000  1
  O  O1  1  0.02300000  0.33960000  0.08400000  1
  O  O2  1  0.66040000  0.68340000  0.08400000  1
  O  O3  1  0.31660000  0.97700000  0.91600000  1
  O  O4  1  0.02300000  0.33960000  0.91600000  1
  O  O5  1  0.66040000  0.68340000  0.91600000  1
  O  O6  1  0.02300000  0.68340000  0.08400000  1
  O  O7  1  0.66040000  0.97700000  0.08400000  1
  O  O8  1  0.31660000  0.33960000  0.08400000  1
  O  O9  1  0.02300000  0.68340000  0.91600000  1
  O  O10  1  0.66040000  0.97700000  0.91600000  1
  O  O11  1  0.31660000  0.33960000  0.91600000  1
  O  O12  1  0.23140000  0.76860000  0.17320000  1
  O  O13  1  0.23140000  0.46280000  0.17320000  1
  O  O14  1  0.53720000  0.76860000  0.17320000  1
  O  O15  1  0.23140000  0.76860000  0.82680000  1
  O  O16  1  0.23140000  0.46280000  0.82680000  1
  O  O17  1  0.53720000  0.76860000  0.82680000  1
  O  O18  1  0.30040000  0.98300000  0.25120000  1
  O  O19  1  0.01700000  0.31740000  0.25120000  1
  O  O20  1  0.68260000  0.69960000  0.25120000  1
  O  O21  1  0.30040000  0.98300000  0.74880000  1
  O  O22  1  0.01700000  0.31740000  0.74880000  1
  O  O23  1  0.68260000  0.69960000  0.74880000  1
  O  O24  1  0.01700000  0.69960000  0.25120000  1
  O  O25  1  0.68260000  0.98300000  0.25120000  1
  O  O26  1  0.30040000  0.31740000  0.25120000  1
  O  O27  1  0.01700000  0.69960000  0.74880000  1
  O  O28  1  0.68260000  0.98300000  0.74880000  1
  O  O29  1  0.30040000  0.31740000  0.74880000  1
  O  O30  1  0.47080000  0.94160000  0.18130000  1
  O  O31  1  0.05840000  0.52920000  0.18130000  1
  O  O32  1  0.47080000  0.52920000  0.18130000  1
  O  O33  1  0.47080000  0.94160000  0.81870000  1
  O  O34  1  0.05840000  0.52920000  0.81870000  1
  O  O35  1  0.47080000  0.52920000  0.81870000  1
  O  O36  1  0.25880000  0.12940000  0.35210000  1
  O  O37  1  0.87060000  0.12940000  0.35210000  1
  O  O38  1  0.87060000  0.74120000  0.35210000  1
  O  O39  1  0.25880000  0.12940000  0.64790000  1
  O  O40  1  0.87060000  0.12940000  0.64790000  1
  O  O41  1  0.87060000  0.74120000  0.64790000  1
  O  O42  1  0.11580000  0.88420000  0.36320000  1
  O  O43  1  0.11580000  0.23160000  0.36320000  1
  O  O44  1  0.76840000  0.88420000  0.36320000  1
  O  O45  1  0.11580000  0.88420000  0.63680000  1
  O  O46  1  0.11580000  0.23160000  0.63680000  1
  O  O47  1  0.76840000  0.88420000  0.63680000  1
  O  O48  1  0.35030000  0.99410000  0.41590000  1
  O  O49  1  0.00590000  0.35620000  0.41590000  1
  O  O50  1  0.64380000  0.64970000  0.41590000  1
  O  O51  1  0.35030000  0.99410000  0.58410000  1
  O  O52  1  0.00590000  0.35620000  0.58410000  1
  O  O53  1  0.64380000  0.64970000  0.58410000  1
  O  O54  1  0.00590000  0.64970000  0.41590000  1
  O  O55  1  0.64380000  0.99410000  0.41590000  1
  O  O56  1  0.35030000  0.35620000  0.41590000  1
  O  O57  1  0.00590000  0.64970000  0.58410000  1
  O  O58  1  0.64380000  0.99410000  0.58410000  1
  O  O59  1  0.35030000  0.35620000  0.58410000  1
  O  O60  1  0.39290000  0.19640000  0.50000000  1
  O  O61  1  0.80360000  0.19650000  0.50000000  1
  O  O62  1  0.80350000  0.60710000  0.50000000  1
  O  O63  1  0.80350000  0.19640000  0.50000000  1
  O  O64  1  0.39290000  0.19650000  0.50000000  1
  O  O65  1  0.56270000  0.12550000  0.50000000  1
  O  O66  1  0.87450000  0.43720000  0.50000000  1
  O  O67  1  0.56280000  0.43730000  0.50000000  1
  O  O68  1  0.87450000  0.43730000  0.50000000  1
  O  O69  1  0.56270000  0.43720000  0.50000000  1
  O  O70  1  0.27360000  0.13680000  0.00000000  1
  O  O71  1  0.86320000  0.13680000  0.00000000  1
  O  O72  1  0.86320000  0.72640000  0.00000000  1
  O  O73  1  0.10430000  0.89570000  0.00000000  1
  O  O74  1  0.10430000  0.20860000  0.00000000  1
  O  O75  1  0.79140000  0.89570000  0.00000000  1
