# generated using pymatgen
data_O2
_symmetry_space_group_name_H-M   'P 1'
_cell_length_a   13.05400000
_cell_length_b   13.05400000
_cell_length_c   15.17500000
_cell_angle_alpha   90.00000000
_cell_angle_beta   90.00000000
_cell_angle_gamma   120.00000000
_symmetry_Int_Tables_number   1
_chemical_formula_structural   O2
_chemical_formula_sum   O78
_cell_volume   2239.47669924
_cell_formula_units_Z   39
loop_
 _symmetry_equiv_pos_site_id
 _symmetry_equiv_pos_as_xyz
  1  'x, y, z'
loop_
 _atom_site_type_symbol
 _atom_site_label
 _atom_site_symmetry_multiplicity
 _atom_site_fract_x
 _atom_site_fract_y
 _atom_site_fract_z
 _atom_site_occupancy
  O  O0  1  0.87110000  0.12890000  0.12810000  1
  O  O1  1  0.87110000  0.74220000  0.12810000  1
  O  O2  1  0.25780000  0.12890000  0.12810000  1
  O  O3  1  0.12890000  0.87110000  0.62810000  1
  O  O4  1  0.12890000  0.25780000  0.62810000  1
  O  O5  1  0.74220000  0.87110000  0.62810000  1
  O  O6  1  0.12890000  0.87110000  0.87190000  1
  O  O7  1  0.12890000  0.25780000  0.87190000  1
  O  O8  1  0.74220000  0.87110000  0.87190000  1
  O  O9  1  0.87110000  0.12890000  0.37190000  1
  O  O10  1  0.87110000  0.74220000  0.37190000  1
  O  O11  1  0.25780000  0.12890000  0.37190000  1
  O  O12  1  0.03600000  0.34740000  0.16340000  1
  O  O13  1  0.65260000  0.68860000  0.16340000  1
  O  O14  1  0.31140000  0.96400000  0.16340000  1
  O  O15  1  0.96400000  0.65260000  0.66340000  1
  O  O16  1  0.34740000  0.31140000  0.66340000  1
  O  O17  1  0.68860000  0.03600000  0.66340000  1
  O  O18  1  0.65260000  0.96400000  0.16340000  1
  O  O19  1  0.31140000  0.34740000  0.16340000  1
  O  O20  1  0.03600000  0.68860000  0.16340000  1
  O  O21  1  0.34740000  0.03600000  0.66340000  1
  O  O22  1  0.68860000  0.65260000  0.66340000  1
  O  O23  1  0.96400000  0.31140000  0.66340000  1
  O  O24  1  0.96400000  0.65260000  0.83660000  1
  O  O25  1  0.34740000  0.31140000  0.83660000  1
  O  O26  1  0.68860000  0.03600000  0.83660000  1
  O  O27  1  0.03600000  0.34740000  0.33660000  1
  O  O28  1  0.65260000  0.68860000  0.33660000  1
  O  O29  1  0.31140000  0.96400000  0.33660000  1
  O  O30  1  0.34740000  0.03600000  0.83660000  1
  O  O31  1  0.68860000  0.65260000  0.83660000  1
  O  O32  1  0.96400000  0.31140000  0.83660000  1
  O  O33  1  0.65260000  0.96400000  0.33660000  1
  O  O34  1  0.31140000  0.34740000  0.33660000  1
  O  O35  1  0.03600000  0.68860000  0.33660000  1
  O  O36  1  0.09570000  0.19140000  0.11390000  1
  O  O37  1  0.80860000  0.90430000  0.11390000  1
  O  O38  1  0.09570000  0.90430000  0.11390000  1
  O  O39  1  0.90430000  0.80860000  0.61390000  1
  O  O40  1  0.19140000  0.09570000  0.61390000  1
  O  O41  1  0.90430000  0.09570000  0.61390000  1
  O  O42  1  0.90430000  0.80860000  0.88610000  1
  O  O43  1  0.19140000  0.09570000  0.88610000  1
  O  O44  1  0.90430000  0.09570000  0.88610000  1
  O  O45  1  0.09570000  0.19140000  0.38610000  1
  O  O46  1  0.80860000  0.90430000  0.38610000  1
  O  O47  1  0.09570000  0.90430000  0.38610000  1
  O  O48  1  0.00000000  0.27050000  0.00000000  1
  O  O49  1  0.72950000  0.72950000  0.00000000  1
  O  O50  1  0.27050000  0.00000000  0.00000000  1
  O  O51  1  0.00000000  0.72950000  0.50000000  1
  O  O52  1  0.27050000  0.27050000  0.50000000  1
  O  O53  1  0.72950000  0.00000000  0.50000000  1
  O  O54  1  0.72950000  0.00000000  0.00000000  1
  O  O55  1  0.27050000  0.27050000  0.00000000  1
  O  O56  1  0.00000000  0.72950000  0.00000000  1
  O  O57  1  0.27050000  0.00000000  0.50000000  1
  O  O58  1  0.72950000  0.72950000  0.50000000  1
  O  O59  1  0.00000000  0.27050000  0.50000000  1
  O  O60  1  0.23560000  0.47120000  0.25000000  1
  O  O61  1  0.52880000  0.76440000  0.25000000  1
  O  O62  1  0.23560000  0.76440000  0.25000000  1
  O  O63  1  0.76440000  0.52880000  0.75000000  1
  O  O64  1  0.47120000  0.23560000  0.75000000  1
  O  O65  1  0.76440000  0.23560000  0.75000000  1
  O  O66  1  0.07570000  0.53780000  0.25000000  1
  O  O67  1  0.46220000  0.53790000  0.25000000  1
  O  O68  1  0.46210000  0.92430000  0.25000000  1
  O  O69  1  0.92430000  0.46220000  0.75000000  1
  O  O70  1  0.53780000  0.46210000  0.75000000  1
  O  O71  1  0.53790000  0.07570000  0.75000000  1
  O  O72  1  0.46220000  0.92430000  0.25000000  1
  O  O73  1  0.46210000  0.53780000  0.25000000  1
  O  O74  1  0.07570000  0.53790000  0.25000000  1
  O  O75  1  0.53780000  0.07570000  0.75000000  1
  O  O76  1  0.53790000  0.46220000  0.75000000  1
  O  O77  1  0.92430000  0.46210000  0.75000000  1
