# generated using pymatgen
data_SiO4
_symmetry_space_group_name_H-M   'P 1'
_cell_length_a   13.05400000
_cell_length_b   13.05400000
_cell_length_c   15.17500000
_cell_angle_alpha   90.00000000
_cell_angle_beta   90.00000000
_cell_angle_gamma   120.00000000
_symmetry_Int_Tables_number   1
_chemical_formula_structural   SiO4
_chemical_formula_sum   'Si1 O4'
_cell_volume   2239.47669924
_cell_formula_units_Z   1
loop_
 _symmetry_equiv_pos_site_id
 _symmetry_equiv_pos_as_xyz
  1  'x, y, z'
loop_
 _atom_site_type_symbol
 _atom_site_label
 _atom_site_symmetry_multiplicity
 _atom_site_fract_x
 _atom_site_fract_y
 _atom_site_fract_z
 _atom_site_occupancy
  Si  Si0  1  0.00060000  0.76610000  0.10140000  1
  O  O1  1  -0.12890000  0.74220000  0.12810000  1
  O  O2  1  0.03600000  0.68860000  0.16340000  1
  O  O3  1  0.09570000  0.90430000  0.11390000  1
  O  O4  1  0.00000000  0.72950000  0.00000000  1
