# generated using pymatgen
data_SiO4
_symmetry_space_group_name_H-M   'P 1'
_cell_length_a   10.24800000
_cell_length_b   13.78800000
_cell_length_c   6.78200000
_cell_angle_alpha   90.00000000
_cell_angle_beta   111.54500000
_cell_angle_gamma   90.00000000
_symmetry_Int_Tables_number   1
_chemical_formula_structural   SiO4
_chemical_formula_sum   'Si1 O4'
_cell_volume   891.33623843
_cell_formula_units_Z   1
loop_
 _symmetry_equiv_pos_site_id
 _symmetry_equiv_pos_as_xyz
  1  'x, y, z'
loop_
 _atom_site_type_symbol
 _atom_site_label
 _atom_site_symmetry_multiplicity
 _atom_site_fract_x
 _atom_site_fract_y
 _atom_site_fract_z
 _atom_site_occupancy
  Si  Si0  1  0.14510000  0.38440000  0.97860000  1
  O  O1  1  0.16010000  0.33150000  0.77630000  1
  O  O2  1  0.27420000  0.35350000  1.18980000  1
  O  O3  1  0.14580000  0.50000000  0.94750000  1
  O  O4  1  0.00000000  0.35190000  1.00000000  1
