# generated using pymatgen
data_Si
_symmetry_space_group_name_H-M   'P 1'
_cell_length_a   10.24800000
_cell_length_b   13.78800000
_cell_length_c   6.78200000
_cell_angle_alpha   90.00000000
_cell_angle_beta   111.54500000
_cell_angle_gamma   90.00000000
_symmetry_Int_Tables_number   1
_chemical_formula_structural   Si
_chemical_formula_sum   Si16
_cell_volume   891.33623843
_cell_formula_units_Z   16
loop_
 _symmetry_equiv_pos_site_id
 _symmetry_equiv_pos_as_xyz
  1  'x, y, z'
loop_
 _atom_site_type_symbol
 _atom_site_label
 _atom_site_symmetry_multiplicity
 _atom_site_fract_x
 _atom_site_fract_y
 _atom_site_fract_z
 _atom_site_occupancy
  Si  Si0  1  0.34110000  0.26630000  0.35380000  1
  Si  Si1  1  0.84110000  0.76630000  0.35380000  1
  Si  Si2  1  0.65890000  0.26630000  0.64620000  1
  Si  Si3  1  0.15890000  0.76630000  0.64620000  1
  Si  Si4  1  0.65890000  0.73370000  0.64620000  1
  Si  Si5  1  0.15890000  0.23370000  0.64620000  1
  Si  Si6  1  0.34110000  0.73370000  0.35380000  1
  Si  Si7  1  0.84110000  0.23370000  0.35380000  1
  Si  Si8  1  0.35490000  0.11560000  0.02140000  1
  Si  Si9  1  0.85490000  0.61560000  0.02140000  1
  Si  Si10  1  0.64510000  0.11560000  0.97860000  1
  Si  Si11  1  0.14510000  0.61560000  0.97860000  1
  Si  Si12  1  0.64510000  0.88440000  0.97860000  1
  Si  Si13  1  0.14510000  0.38440000  0.97860000  1
  Si  Si14  1  0.35490000  0.88440000  0.02140000  1
  Si  Si15  1  0.85490000  0.38440000  0.02140000  1
