# generated using pymatgen
data_O2
_symmetry_space_group_name_H-M   'P 1'
_cell_length_a   10.24800000
_cell_length_b   13.78800000
_cell_length_c   6.78200000
_cell_angle_alpha   90.00000000
_cell_angle_beta   111.54500000
_cell_angle_gamma   90.00000000
_symmetry_Int_Tables_number   1
_chemical_formula_structural   O2
_chemical_formula_sum   O32
_cell_volume   891.33623843
_cell_formula_units_Z   16
loop_
 _symmetry_equiv_pos_site_id
 _symmetry_equiv_pos_as_xyz
  1  'x, y, z'
loop_
 _atom_site_type_symbol
 _atom_site_label
 _atom_site_symmetry_multiplicity
 _atom_site_fract_x
 _atom_site_fract_y
 _atom_site_fract_z
 _atom_site_occupancy
  O  O0  1  0.25000000  0.25000000  0.50000000  1
  O  O1  1  0.75000000  0.75000000  0.50000000  1
  O  O2  1  0.75000000  0.25000000  0.50000000  1
  O  O3  1  0.25000000  0.75000000  0.50000000  1
  O  O4  1  0.33990000  0.16850000  0.22370000  1
  O  O5  1  0.83990000  0.66850000  0.22370000  1
  O  O6  1  0.66010000  0.16850000  0.77630000  1
  O  O7  1  0.16010000  0.66850000  0.77630000  1
  O  O8  1  0.66010000  0.83150000  0.77630000  1
  O  O9  1  0.16010000  0.33150000  0.77630000  1
  O  O10  1  0.33990000  0.83150000  0.22370000  1
  O  O11  1  0.83990000  0.33150000  0.22370000  1
  O  O12  1  0.27420000  0.35350000  0.18980000  1
  O  O13  1  0.77420000  0.85350000  0.18980000  1
  O  O14  1  0.72580000  0.35350000  0.81020000  1
  O  O15  1  0.22580000  0.85350000  0.81020000  1
  O  O16  1  0.72580000  0.64650000  0.81020000  1
  O  O17  1  0.22580000  0.14650000  0.81020000  1
  O  O18  1  0.27420000  0.64650000  0.18980000  1
  O  O19  1  0.77420000  0.14650000  0.18980000  1
  O  O20  1  0.50000000  0.29350000  0.50000000  1
  O  O21  1  0.00000000  0.79350000  0.50000000  1
  O  O22  1  0.50000000  0.70650000  0.50000000  1
  O  O23  1  0.00000000  0.20650000  0.50000000  1
  O  O24  1  0.35420000  0.00000000  0.05250000  1
  O  O25  1  0.85420000  0.50000000  0.05250000  1
  O  O26  1  0.64580000  0.00000000  0.94750000  1
  O  O27  1  0.14580000  0.50000000  0.94750000  1
  O  O28  1  0.50000000  0.14810000  0.00000000  1
  O  O29  1  0.00000000  0.64810000  0.00000000  1
  O  O30  1  0.50000000  0.85190000  0.00000000  1
  O  O31  1  0.00000000  0.35190000  0.00000000  1
