# generated using pymatgen
data_SiO4
_symmetry_space_group_name_H-M   'P 1'
_cell_length_a   9.76200000
_cell_length_b   20.53000000
_cell_length_c   9.99600000
_cell_angle_alpha   90.00000000
_cell_angle_beta   96.89700000
_cell_angle_gamma   90.00000000
_symmetry_Int_Tables_number   1
_chemical_formula_structural   SiO4
_chemical_formula_sum   'Si1 O4'
_cell_volume   1988.84005904
_cell_formula_units_Z   1
loop_
 _symmetry_equiv_pos_site_id
 _symmetry_equiv_pos_as_xyz
  1  'x, y, z'
loop_
 _atom_site_type_symbol
 _atom_site_label
 _atom_site_symmetry_multiplicity
 _atom_site_fract_x
 _atom_site_fract_y
 _atom_site_fract_z
 _atom_site_occupancy
  Si  Si0  1  0.15890000  0.84860000  0.02120000  1
  O  O1  1  0.25410000  0.90850000  0.08040000  1
  O  O2  1  0.20510000  0.82620000  -0.12110000  1
  O  O3  1  0.17670000  0.78870000  0.12570000  1
  O  O4  1  0.00000000  0.87140000  0.00000000  1
