# generated using pymatgen
data_Si
_symmetry_space_group_name_H-M   'P 1'
_cell_length_a   9.76200000
_cell_length_b   20.53000000
_cell_length_c   9.99600000
_cell_angle_alpha   90.00000000
_cell_angle_beta   96.89700000
_cell_angle_gamma   90.00000000
_symmetry_Int_Tables_number   1
_chemical_formula_structural   Si
_chemical_formula_sum   Si32
_cell_volume   1988.84005904
_cell_formula_units_Z   32
loop_
 _symmetry_equiv_pos_site_id
 _symmetry_equiv_pos_as_xyz
  1  'x, y, z'
loop_
 _atom_site_type_symbol
 _atom_site_label
 _atom_site_symmetry_multiplicity
 _atom_site_fract_x
 _atom_site_fract_y
 _atom_site_fract_z
 _atom_site_occupancy
  Si  Si0  1  0.00660000  0.31830000  0.34360000  1
  Si  Si1  1  0.50660000  0.81830000  0.34360000  1
  Si  Si2  1  0.99340000  0.31830000  0.65640000  1
  Si  Si3  1  0.49340000  0.81830000  0.65640000  1
  Si  Si4  1  0.99340000  0.68170000  0.65640000  1
  Si  Si5  1  0.49340000  0.18170000  0.65640000  1
  Si  Si6  1  0.00660000  0.68170000  0.34360000  1
  Si  Si7  1  0.50660000  0.18170000  0.34360000  1
  Si  Si8  1  0.41570000  0.07660000  0.12140000  1
  Si  Si9  1  0.91570000  0.57660000  0.12140000  1
  Si  Si10  1  0.58430000  0.07660000  0.87860000  1
  Si  Si11  1  0.08430000  0.57660000  0.87860000  1
  Si  Si12  1  0.58430000  0.92340000  0.87860000  1
  Si  Si13  1  0.08430000  0.42340000  0.87860000  1
  Si  Si14  1  0.41570000  0.92340000  0.12140000  1
  Si  Si15  1  0.91570000  0.42340000  0.12140000  1
  Si  Si16  1  0.25710000  0.26730000  0.21650000  1
  Si  Si17  1  0.75710000  0.76730000  0.21650000  1
  Si  Si18  1  0.74290000  0.26730000  0.78350000  1
  Si  Si19  1  0.24290000  0.76730000  0.78350000  1
  Si  Si20  1  0.74290000  0.73270000  0.78350000  1
  Si  Si21  1  0.24290000  0.23270000  0.78350000  1
  Si  Si22  1  0.25710000  0.73270000  0.21650000  1
  Si  Si23  1  0.75710000  0.23270000  0.21650000  1
  Si  Si24  1  0.15890000  0.15140000  0.02120000  1
  Si  Si25  1  0.65890000  0.65140000  0.02120000  1
  Si  Si26  1  0.84110000  0.15140000  0.97880000  1
  Si  Si27  1  0.34110000  0.65140000  0.97880000  1
  Si  Si28  1  0.84110000  0.84860000  0.97880000  1
  Si  Si29  1  0.34110000  0.34860000  0.97880000  1
  Si  Si30  1  0.15890000  0.84860000  0.02120000  1
  Si  Si31  1  0.65890000  0.34860000  0.02120000  1
