# generated using pymatgen
data_O2
_symmetry_space_group_name_H-M   'P 1'
_cell_length_a   9.76200000
_cell_length_b   20.53000000
_cell_length_c   9.99600000
_cell_angle_alpha   90.00000000
_cell_angle_beta   96.89700000
_cell_angle_gamma   90.00000000
_symmetry_Int_Tables_number   1
_chemical_formula_structural   O2
_chemical_formula_sum   O64
_cell_volume   1988.84005904
_cell_formula_units_Z   32
loop_
 _symmetry_equiv_pos_site_id
 _symmetry_equiv_pos_as_xyz
  1  'x, y, z'
loop_
 _atom_site_type_symbol
 _atom_site_label
 _atom_site_symmetry_multiplicity
 _atom_site_fract_x
 _atom_site_fract_y
 _atom_site_fract_z
 _atom_site_occupancy
  O  O0  1  0.15950000  0.29400000  0.32340000  1
  O  O1  1  0.65950000  0.79400000  0.32340000  1
  O  O2  1  0.84050000  0.29400000  0.67660000  1
  O  O3  1  0.34050000  0.79400000  0.67660000  1
  O  O4  1  0.84050000  0.70600000  0.67660000  1
  O  O5  1  0.34050000  0.20600000  0.67660000  1
  O  O6  1  0.15950000  0.70600000  0.32340000  1
  O  O7  1  0.65950000  0.20600000  0.32340000  1
  O  O8  1  0.00000000  0.33490000  0.50000000  1
  O  O9  1  0.50000000  0.83490000  0.50000000  1
  O  O10  1  0.00000000  0.66510000  0.50000000  1
  O  O11  1  0.50000000  0.16510000  0.50000000  1
  O  O12  1  0.97060000  0.38300000  0.25510000  1
  O  O13  1  0.47060000  0.88300000  0.25510000  1
  O  O14  1  0.02940000  0.38300000  0.74490000  1
  O  O15  1  0.52940000  0.88300000  0.74490000  1
  O  O16  1  0.02940000  0.61700000  0.74490000  1
  O  O17  1  0.52940000  0.11700000  0.74490000  1
  O  O18  1  0.97060000  0.61700000  0.25510000  1
  O  O19  1  0.47060000  0.11700000  0.25510000  1
  O  O20  1  0.89670000  0.26210000  0.29590000  1
  O  O21  1  0.39670000  0.76210000  0.29590000  1
  O  O22  1  0.10330000  0.26210000  0.70410000  1
  O  O23  1  0.60330000  0.76210000  0.70410000  1
  O  O24  1  0.10330000  0.73790000  0.70410000  1
  O  O25  1  0.60330000  0.23790000  0.70410000  1
  O  O26  1  0.89670000  0.73790000  0.29590000  1
  O  O27  1  0.39670000  0.23790000  0.29590000  1
  O  O28  1  0.25410000  0.09150000  0.08040000  1
  O  O29  1  0.75410000  0.59150000  0.08040000  1
  O  O30  1  0.74590000  0.09150000  0.91960000  1
  O  O31  1  0.24590000  0.59150000  0.91960000  1
  O  O32  1  0.74590000  0.90850000  0.91960000  1
  O  O33  1  0.24590000  0.40850000  0.91960000  1
  O  O34  1  0.25410000  0.90850000  0.08040000  1
  O  O35  1  0.75410000  0.40850000  0.08040000  1
  O  O36  1  0.43790000  0.00000000  0.15010000  1
  O  O37  1  0.93790000  0.50000000  0.15010000  1
  O  O38  1  0.56210000  0.00000000  0.84990000  1
  O  O39  1  0.06210000  0.50000000  0.84990000  1
  O  O40  1  0.50000000  0.09840000  0.00000000  1
  O  O41  1  0.00000000  0.59840000  0.00000000  1
  O  O42  1  0.50000000  0.90160000  0.00000000  1
  O  O43  1  0.00000000  0.40160000  0.00000000  1
  O  O44  1  0.29490000  0.32620000  0.12110000  1
  O  O45  1  0.79490000  0.82620000  0.12110000  1
  O  O46  1  0.70510000  0.32620000  0.87890000  1
  O  O47  1  0.20510000  0.82620000  0.87890000  1
  O  O48  1  0.70510000  0.67380000  0.87890000  1
  O  O49  1  0.20510000  0.17380000  0.87890000  1
  O  O50  1  0.29490000  0.67380000  0.12110000  1
  O  O51  1  0.79490000  0.17380000  0.12110000  1
  O  O52  1  0.17670000  0.21130000  0.12570000  1
  O  O53  1  0.67670000  0.71130000  0.12570000  1
  O  O54  1  0.82330000  0.21130000  0.87430000  1
  O  O55  1  0.32330000  0.71130000  0.87430000  1
  O  O56  1  0.82330000  0.78870000  0.87430000  1
  O  O57  1  0.32330000  0.28870000  0.87430000  1
  O  O58  1  0.17670000  0.78870000  0.12570000  1
  O  O59  1  0.67670000  0.28870000  0.12570000  1
  O  O60  1  0.00000000  0.12860000  0.00000000  1
  O  O61  1  0.50000000  0.62860000  0.00000000  1
  O  O62  1  0.00000000  0.87140000  0.00000000  1
  O  O63  1  0.50000000  0.37140000  0.00000000  1
