# generated using pymatgen
data_SiO4
_symmetry_space_group_name_H-M   'P 1'
_cell_length_a   13.22400000
_cell_length_b   13.28600000
_cell_length_c   12.45400000
_cell_angle_alpha   90.00000000
_cell_angle_beta   114.84200000
_cell_angle_gamma   90.00000000
_symmetry_Int_Tables_number   1
_chemical_formula_structural   SiO4
_chemical_formula_sum   'Si1 O4'
_cell_volume   1985.62902234
_cell_formula_units_Z   1
loop_
 _symmetry_equiv_pos_site_id
 _symmetry_equiv_pos_as_xyz
  1  'x, y, z'
loop_
 _atom_site_type_symbol
 _atom_site_label
 _atom_site_symmetry_multiplicity
 _atom_site_fract_x
 _atom_site_fract_y
 _atom_site_fract_z
 _atom_site_occupancy
  Si  Si0  1  0.94800000  0.88370000  0.67940000  1
  O  O1  1  0.81490000  0.87680000  0.60470000  1
  O  O2  1  0.98180000  0.83150000  0.80650000  1
  O  O3  1  0.98560000  1.00000000  0.69780000  1
  O  O4  1  1.00950000  0.82670000  0.60940000  1
