# generated using pymatgen
data_SiO4
_symmetry_space_group_name_H-M   'P 1'
_cell_length_a   13.22400000
_cell_length_b   13.28600000
_cell_length_c   12.45400000
_cell_angle_alpha   90.00000000
_cell_angle_beta   114.84200000
_cell_angle_gamma   90.00000000
_symmetry_Int_Tables_number   1
_chemical_formula_structural   SiO4
_chemical_formula_sum   'Si1 O4'
_cell_volume   1985.62902234
_cell_formula_units_Z   1
loop_
 _symmetry_equiv_pos_site_id
 _symmetry_equiv_pos_as_xyz
  1  'x, y, z'
loop_
 _atom_site_type_symbol
 _atom_site_label
 _atom_site_symmetry_multiplicity
 _atom_site_fract_x
 _atom_site_fract_y
 _atom_site_fract_z
 _atom_site_occupancy
  Si  Si0  1  0.93280000  0.77720000  0.07430000  1
  O  O1  1  0.83810000  0.85600000  -0.00400000  1
  O  O2  1  0.87650000  0.68220000  0.10810000  1
  O  O3  1  1.01820000  0.83150000  0.19350000  1
  O  O4  1  1.00000000  0.73910000  0.00000000  1
