# generated using pymatgen
data_O2
_symmetry_space_group_name_H-M   'P 1'
_cell_length_a   13.22400000
_cell_length_b   13.28600000
_cell_length_c   12.45400000
_cell_angle_alpha   90.00000000
_cell_angle_beta   114.84200000
_cell_angle_gamma   90.00000000
_symmetry_Int_Tables_number   1
_chemical_formula_structural   O2
_chemical_formula_sum   O72
_cell_volume   1985.62902234
_cell_formula_units_Z   36
loop_
 _symmetry_equiv_pos_site_id
 _symmetry_equiv_pos_as_xyz
  1  'x, y, z'
loop_
 _atom_site_type_symbol
 _atom_site_label
 _atom_site_symmetry_multiplicity
 _atom_site_fract_x
 _atom_site_fract_y
 _atom_site_fract_z
 _atom_site_occupancy
  O  O0  1  0.16190000  0.14400000  0.00400000  1
  O  O1  1  0.66190000  0.64400000  0.00400000  1
  O  O2  1  0.83810000  0.14400000  0.99600000  1
  O  O3  1  0.33810000  0.64400000  0.99600000  1
  O  O4  1  0.83810000  0.85600000  0.99600000  1
  O  O5  1  0.33810000  0.35600000  0.99600000  1
  O  O6  1  0.16190000  0.85600000  0.00400000  1
  O  O7  1  0.66190000  0.35600000  0.00400000  1
  O  O8  1  0.30310000  0.00000000  0.11710000  1
  O  O9  1  0.80310000  0.50000000  0.11710000  1
  O  O10  1  0.69690000  0.00000000  0.88290000  1
  O  O11  1  0.19690000  0.50000000  0.88290000  1
  O  O12  1  0.37650000  0.18220000  0.10810000  1
  O  O13  1  0.87650000  0.68220000  0.10810000  1
  O  O14  1  0.62350000  0.18220000  0.89190000  1
  O  O15  1  0.12350000  0.68220000  0.89190000  1
  O  O16  1  0.62350000  0.81780000  0.89190000  1
  O  O17  1  0.12350000  0.31780000  0.89190000  1
  O  O18  1  0.37650000  0.81780000  0.10810000  1
  O  O19  1  0.87650000  0.31780000  0.10810000  1
  O  O20  1  0.26540000  0.14750000  0.23640000  1
  O  O21  1  0.76540000  0.64750000  0.23640000  1
  O  O22  1  0.73460000  0.14750000  0.76360000  1
  O  O23  1  0.23460000  0.64750000  0.76360000  1
  O  O24  1  0.73460000  0.85250000  0.76360000  1
  O  O25  1  0.23460000  0.35250000  0.76360000  1
  O  O26  1  0.26540000  0.85250000  0.23640000  1
  O  O27  1  0.76540000  0.35250000  0.23640000  1
  O  O28  1  0.33860000  0.00000000  0.39060000  1
  O  O29  1  0.83860000  0.50000000  0.39060000  1
  O  O30  1  0.66140000  0.00000000  0.60940000  1
  O  O31  1  0.16140000  0.50000000  0.60940000  1
  O  O32  1  0.39080000  0.18700000  0.46060000  1
  O  O33  1  0.89080000  0.68700000  0.46060000  1
  O  O34  1  0.60920000  0.18700000  0.53940000  1
  O  O35  1  0.10920000  0.68700000  0.53940000  1
  O  O36  1  0.60920000  0.81300000  0.53940000  1
  O  O37  1  0.10920000  0.31300000  0.53940000  1
  O  O38  1  0.39080000  0.81300000  0.46060000  1
  O  O39  1  0.89080000  0.31300000  0.46060000  1
  O  O40  1  0.18510000  0.12320000  0.39530000  1
  O  O41  1  0.68510000  0.62320000  0.39530000  1
  O  O42  1  0.81490000  0.12320000  0.60470000  1
  O  O43  1  0.31490000  0.62320000  0.60470000  1
  O  O44  1  0.81490000  0.87680000  0.60470000  1
  O  O45  1  0.31490000  0.37680000  0.60470000  1
  O  O46  1  0.18510000  0.87680000  0.39530000  1
  O  O47  1  0.68510000  0.37680000  0.39530000  1
  O  O48  1  0.01820000  0.16850000  0.19350000  1
  O  O49  1  0.51820000  0.66850000  0.19350000  1
  O  O50  1  0.98180000  0.16850000  0.80650000  1
  O  O51  1  0.48180000  0.66850000  0.80650000  1
  O  O52  1  0.98180000  0.83150000  0.80650000  1
  O  O53  1  0.48180000  0.33150000  0.80650000  1
  O  O54  1  0.01820000  0.83150000  0.19350000  1
  O  O55  1  0.51820000  0.33150000  0.19350000  1
  O  O56  1  0.01440000  0.00000000  0.30220000  1
  O  O57  1  0.51440000  0.50000000  0.30220000  1
  O  O58  1  0.98560000  0.00000000  0.69780000  1
  O  O59  1  0.48560000  0.50000000  0.69780000  1
  O  O60  1  0.99050000  0.17330000  0.39060000  1
  O  O61  1  0.49050000  0.67330000  0.39060000  1
  O  O62  1  0.00950000  0.17330000  0.60940000  1
  O  O63  1  0.50950000  0.67330000  0.60940000  1
  O  O64  1  0.00950000  0.82670000  0.60940000  1
  O  O65  1  0.50950000  0.32670000  0.60940000  1
  O  O66  1  0.99050000  0.82670000  0.39060000  1
  O  O67  1  0.49050000  0.32670000  0.39060000  1
  O  O68  1  0.00000000  0.26090000  0.00000000  1
  O  O69  1  0.50000000  0.76090000  0.00000000  1
  O  O70  1  0.00000000  0.73910000  0.00000000  1
  O  O71  1  0.50000000  0.23910000  0.00000000  1
