# generated using pymatgen
data_Si
_symmetry_space_group_name_H-M   'P 1'
_cell_length_a   13.22400000
_cell_length_b   13.28600000
_cell_length_c   12.45400000
_cell_angle_alpha   90.00000000
_cell_angle_beta   114.84200000
_cell_angle_gamma   90.00000000
_symmetry_Int_Tables_number   1
_chemical_formula_structural   Si
_chemical_formula_sum   Si36
_cell_volume   1985.62902234
_cell_formula_units_Z   36
loop_
 _symmetry_equiv_pos_site_id
 _symmetry_equiv_pos_as_xyz
  1  'x, y, z'
loop_
 _atom_site_type_symbol
 _atom_site_label
 _atom_site_symmetry_multiplicity
 _atom_site_fract_x
 _atom_site_fract_y
 _atom_site_fract_z
 _atom_site_occupancy
  Si  Si0  1  0.27660000  0.11830000  0.11640000  1
  Si  Si1  1  0.77660000  0.61830000  0.11640000  1
  Si  Si2  1  0.72340000  0.11830000  0.88360000  1
  Si  Si3  1  0.22340000  0.61830000  0.88360000  1
  Si  Si4  1  0.72340000  0.88170000  0.88360000  1
  Si  Si5  1  0.22340000  0.38170000  0.88360000  1
  Si  Si6  1  0.27660000  0.88170000  0.11640000  1
  Si  Si7  1  0.77660000  0.38170000  0.11640000  1
  Si  Si8  1  0.29510000  0.11470000  0.37080000  1
  Si  Si9  1  0.79510000  0.61470000  0.37080000  1
  Si  Si10  1  0.70490000  0.11470000  0.62920000  1
  Si  Si11  1  0.20490000  0.61470000  0.62920000  1
  Si  Si12  1  0.70490000  0.88530000  0.62920000  1
  Si  Si13  1  0.20490000  0.38530000  0.62920000  1
  Si  Si14  1  0.29510000  0.88530000  0.37080000  1
  Si  Si15  1  0.79510000  0.38530000  0.37080000  1
  Si  Si16  1  0.05200000  0.11630000  0.32060000  1
  Si  Si17  1  0.55200000  0.61630000  0.32060000  1
  Si  Si18  1  0.94800000  0.11630000  0.67940000  1
  Si  Si19  1  0.44800000  0.61630000  0.67940000  1
  Si  Si20  1  0.94800000  0.88370000  0.67940000  1
  Si  Si21  1  0.44800000  0.38370000  0.67940000  1
  Si  Si22  1  0.05200000  0.88370000  0.32060000  1
  Si  Si23  1  0.55200000  0.38370000  0.32060000  1
  Si  Si24  1  0.93280000  0.22280000  0.07430000  1
  Si  Si25  1  0.43280000  0.72280000  0.07430000  1
  Si  Si26  1  0.06720000  0.22280000  0.92570000  1
  Si  Si27  1  0.56720000  0.72280000  0.92570000  1
  Si  Si28  1  0.06720000  0.77720000  0.92570000  1
  Si  Si29  1  0.56720000  0.27720000  0.92570000  1
  Si  Si30  1  0.93280000  0.77720000  0.07430000  1
  Si  Si31  1  0.43280000  0.27720000  0.07430000  1
  Si  Si32  1  0.00000000  0.24320000  0.50000000  1
  Si  Si33  1  0.50000000  0.74320000  0.50000000  1
  Si  Si34  1  0.00000000  0.75680000  0.50000000  1
  Si  Si35  1  0.50000000  0.25680000  0.50000000  1
