# generated using pymatgen
data_SiO4
_symmetry_space_group_name_H-M   'P 1'
_cell_length_a   24.06381000
_cell_length_b   13.83322000
_cell_length_c   12.35160000
_cell_angle_alpha   90.00000000
_cell_angle_beta   109.12820000
_cell_angle_gamma   90.00000000
_symmetry_Int_Tables_number   1
_chemical_formula_structural   SiO4
_chemical_formula_sum   'Si1 O4'
_cell_volume   3884.58961421
_cell_formula_units_Z   1
loop_
 _symmetry_equiv_pos_site_id
 _symmetry_equiv_pos_as_xyz
  1  'x, y, z'
loop_
 _atom_site_type_symbol
 _atom_site_label
 _atom_site_symmetry_multiplicity
 _atom_site_fract_x
 _atom_site_fract_y
 _atom_site_fract_z
 _atom_site_occupancy
  Si  Si0  1  0.20538000  0.00000000  0.94330000  1
  O  O1  1  0.17210000  -0.09528000  0.96455000  1
  O  O2  1  0.17210000  0.09528000  0.96455000  1
  O  O3  1  0.20882000  0.00000000  0.81527000  1
  O  O4  1  0.27068000  0.00000000  1.03582000  1
