# generated using pymatgen
data_O2
_symmetry_space_group_name_H-M   'P 1'
_cell_length_a   24.06381000
_cell_length_b   13.83322000
_cell_length_c   12.35160000
_cell_angle_alpha   90.00000000
_cell_angle_beta   109.12820000
_cell_angle_gamma   90.00000000
_symmetry_Int_Tables_number   1
_chemical_formula_structural   O2
_chemical_formula_sum   O136
_cell_volume   3884.58961421
_cell_formula_units_Z   68
loop_
 _symmetry_equiv_pos_site_id
 _symmetry_equiv_pos_as_xyz
  1  'x, y, z'
loop_
 _atom_site_type_symbol
 _atom_site_label
 _atom_site_symmetry_multiplicity
 _atom_site_fract_x
 _atom_site_fract_y
 _atom_site_fract_z
 _atom_site_occupancy
  O  O0  1  0.32386000  0.90300000  0.22624000  1
  O  O1  1  0.32386000  0.09700000  0.22624000  1
  O  O2  1  0.67614000  0.09700000  0.77376000  1
  O  O3  1  0.67614000  0.90300000  0.77376000  1
  O  O4  1  0.82386000  0.40300000  0.22624000  1
  O  O5  1  0.82386000  0.59700000  0.22624000  1
  O  O6  1  0.17614000  0.59700000  0.77376000  1
  O  O7  1  0.17614000  0.40300000  0.77376000  1
  O  O8  1  0.34575000  0.71973000  0.20513000  1
  O  O9  1  0.34575000  0.28027000  0.20513000  1
  O  O10  1  0.65425000  0.28027000  0.79487000  1
  O  O11  1  0.65425000  0.71973000  0.79487000  1
  O  O12  1  0.84575000  0.21973000  0.20513000  1
  O  O13  1  0.84575000  0.78027000  0.20513000  1
  O  O14  1  0.15425000  0.78027000  0.79487000  1
  O  O15  1  0.15425000  0.21973000  0.79487000  1
  O  O16  1  0.32387000  0.78171000  0.38829000  1
  O  O17  1  0.32387000  0.21829000  0.38829000  1
  O  O18  1  0.67613000  0.21829000  0.61171000  1
  O  O19  1  0.67613000  0.78171000  0.61171000  1
  O  O20  1  0.82387000  0.28171000  0.38829000  1
  O  O21  1  0.82387000  0.71829000  0.38829000  1
  O  O22  1  0.17613000  0.71829000  0.61171000  1
  O  O23  1  0.17613000  0.28171000  0.61171000  1
  O  O24  1  0.23821000  0.77290000  0.19189000  1
  O  O25  1  0.23821000  0.22710000  0.19189000  1
  O  O26  1  0.76179000  0.22710000  0.80811000  1
  O  O27  1  0.76179000  0.77290000  0.80811000  1
  O  O28  1  0.73821000  0.27290000  0.19189000  1
  O  O29  1  0.73821000  0.72710000  0.19189000  1
  O  O30  1  0.26179000  0.72710000  0.80811000  1
  O  O31  1  0.26179000  0.27290000  0.80811000  1
  O  O32  1  0.31918000  0.90386000  0.54843000  1
  O  O33  1  0.31918000  0.09614000  0.54843000  1
  O  O34  1  0.68082000  0.09614000  0.45157000  1
  O  O35  1  0.68082000  0.90386000  0.45157000  1
  O  O36  1  0.81918000  0.40386000  0.54843000  1
  O  O37  1  0.81918000  0.59614000  0.54843000  1
  O  O38  1  0.18082000  0.59614000  0.45157000  1
  O  O39  1  0.18082000  0.40386000  0.45157000  1
  O  O40  1  0.25000000  0.75000000  0.50000000  1
  O  O41  1  0.25000000  0.25000000  0.50000000  1
  O  O42  1  0.75000000  0.25000000  0.50000000  1
  O  O43  1  0.75000000  0.75000000  0.50000000  1
  O  O44  1  0.36500000  0.73203000  0.60392000  1
  O  O45  1  0.36500000  0.26797000  0.60392000  1
  O  O46  1  0.63500000  0.26797000  0.39608000  1
  O  O47  1  0.63500000  0.73203000  0.39608000  1
  O  O48  1  0.86500000  0.23203000  0.60392000  1
  O  O49  1  0.86500000  0.76797000  0.60392000  1
  O  O50  1  0.13500000  0.76797000  0.39608000  1
  O  O51  1  0.13500000  0.23203000  0.39608000  1
  O  O52  1  0.34296000  0.77813000  0.00193000  1
  O  O53  1  0.34296000  0.22187000  0.00193000  1
  O  O54  1  0.65704000  0.22187000  0.99807000  1
  O  O55  1  0.65704000  0.77813000  0.99807000  1
  O  O56  1  0.84296000  0.27813000  0.00193000  1
  O  O57  1  0.84296000  0.72187000  0.00193000  1
  O  O58  1  0.15704000  0.72187000  0.99807000  1
  O  O59  1  0.15704000  0.27813000  0.99807000  1
  O  O60  1  0.30452000  0.90517000  0.83622000  1
  O  O61  1  0.30452000  0.09483000  0.83622000  1
  O  O62  1  0.69548000  0.09483000  0.16378000  1
  O  O63  1  0.69548000  0.90517000  0.16378000  1
  O  O64  1  0.80452000  0.40517000  0.83622000  1
  O  O65  1  0.80452000  0.59483000  0.83622000  1
  O  O66  1  0.19548000  0.59483000  0.16378000  1
  O  O67  1  0.19548000  0.40517000  0.16378000  1
  O  O68  1  0.37239000  0.76747000  0.81758000  1
  O  O69  1  0.37239000  0.23253000  0.81758000  1
  O  O70  1  0.62761000  0.23253000  0.18242000  1
  O  O71  1  0.62761000  0.76747000  0.18242000  1
  O  O72  1  0.87239000  0.26747000  0.81758000  1
  O  O73  1  0.87239000  0.73253000  0.81758000  1
  O  O74  1  0.12761000  0.73253000  0.18242000  1
  O  O75  1  0.12761000  0.26747000  0.18242000  1
  O  O76  1  0.32790000  0.59528000  0.03545000  1
  O  O77  1  0.32790000  0.40472000  0.03545000  1
  O  O78  1  0.67210000  0.40472000  0.96455000  1
  O  O79  1  0.67210000  0.59528000  0.96455000  1
  O  O80  1  0.82790000  0.09528000  0.03545000  1
  O  O81  1  0.82790000  0.90472000  0.03545000  1
  O  O82  1  0.17210000  0.90472000  0.96455000  1
  O  O83  1  0.17210000  0.09528000  0.96455000  1
  O  O84  1  0.35198000  0.59456000  0.73975000  1
  O  O85  1  0.35198000  0.40544000  0.73975000  1
  O  O86  1  0.64802000  0.40544000  0.26025000  1
  O  O87  1  0.64802000  0.59456000  0.26025000  1
  O  O88  1  0.85198000  0.09456000  0.73975000  1
  O  O89  1  0.85198000  0.90544000  0.73975000  1
  O  O90  1  0.14802000  0.90544000  0.26025000  1
  O  O91  1  0.14802000  0.09456000  0.26025000  1
  O  O92  1  0.20882000  0.00000000  0.81527000  1
  O  O93  1  0.79118000  0.00000000  0.18473000  1
  O  O94  1  0.70882000  0.50000000  0.81527000  1
  O  O95  1  0.29118000  0.50000000  0.18473000  1
  O  O96  1  0.25214000  0.00000000  0.64319000  1
  O  O97  1  0.74786000  0.00000000  0.35681000  1
  O  O98  1  0.75214000  0.50000000  0.64319000  1
  O  O99  1  0.24786000  0.50000000  0.35681000  1
  O  O100  1  0.22932000  0.50000000  0.96418000  1
  O  O101  1  0.77068000  0.50000000  0.03582000  1
  O  O102  1  0.72932000  0.00000000  0.96418000  1
  O  O103  1  0.27068000  0.00000000  0.03582000  1
  O  O104  1  0.27122000  0.50000000  0.79454000  1
  O  O105  1  0.72878000  0.50000000  0.20546000  1
  O  O106  1  0.77122000  0.00000000  0.79454000  1
  O  O107  1  0.22878000  0.00000000  0.20546000  1
  O  O108  1  0.27152000  0.50000000  0.57947000  1
  O  O109  1  0.72848000  0.50000000  0.42053000  1
  O  O110  1  0.77152000  0.00000000  0.57947000  1
  O  O111  1  0.22848000  0.00000000  0.42053000  1
  O  O112  1  0.04359000  0.83654000  0.22201000  1
  O  O113  1  0.04359000  0.16346000  0.22201000  1
  O  O114  1  0.95641000  0.16346000  0.77799000  1
  O  O115  1  0.95641000  0.83654000  0.77799000  1
  O  O116  1  0.54359000  0.33654000  0.22201000  1
  O  O117  1  0.54359000  0.66346000  0.22201000  1
  O  O118  1  0.45641000  0.66346000  0.77799000  1
  O  O119  1  0.45641000  0.33654000  0.77799000  1
  O  O120  1  0.93177000  0.83139000  0.12370000  1
  O  O121  1  0.93177000  0.16861000  0.12370000  1
  O  O122  1  0.06823000  0.16861000  0.87630000  1
  O  O123  1  0.06823000  0.83139000  0.87630000  1
  O  O124  1  0.43177000  0.33139000  0.12370000  1
  O  O125  1  0.43177000  0.66861000  0.12370000  1
  O  O126  1  0.56823000  0.66861000  0.87630000  1
  O  O127  1  0.56823000  0.33139000  0.87630000  1
  O  O128  1  0.00000000  0.13071000  0.00000000  1
  O  O129  1  0.00000000  0.86929000  0.00000000  1
  O  O130  1  0.50000000  0.63071000  0.00000000  1
  O  O131  1  0.50000000  0.36929000  0.00000000  1
  O  O132  1  0.98688000  0.00000000  0.14525000  1
  O  O133  1  0.01312000  0.00000000  0.85475000  1
  O  O134  1  0.48688000  0.50000000  0.14525000  1
  O  O135  1  0.51312000  0.50000000  0.85475000  1
