# generated using pymatgen
data_Si
_symmetry_space_group_name_H-M   'P 1'
_cell_length_a   24.06381000
_cell_length_b   13.83322000
_cell_length_c   12.35160000
_cell_angle_alpha   90.00000000
_cell_angle_beta   109.12820000
_cell_angle_gamma   90.00000000
_symmetry_Int_Tables_number   1
_chemical_formula_structural   Si
_chemical_formula_sum   Si68
_cell_volume   3884.58961421
_cell_formula_units_Z   68
loop_
 _symmetry_equiv_pos_site_id
 _symmetry_equiv_pos_as_xyz
  1  'x, y, z'
loop_
 _atom_site_type_symbol
 _atom_site_label
 _atom_site_symmetry_multiplicity
 _atom_site_fract_x
 _atom_site_fract_y
 _atom_site_fract_z
 _atom_site_occupancy
  Si  Si0  1  0.30734000  0.79428000  0.25172000  1
  Si  Si1  1  0.30734000  0.20572000  0.25172000  1
  Si  Si2  1  0.69266000  0.20572000  0.74828000  1
  Si  Si3  1  0.69266000  0.79428000  0.74828000  1
  Si  Si4  1  0.80734000  0.29428000  0.25172000  1
  Si  Si5  1  0.80734000  0.70572000  0.25172000  1
  Si  Si6  1  0.19266000  0.70572000  0.74828000  1
  Si  Si7  1  0.19266000  0.29428000  0.74828000  1
  Si  Si8  1  0.31390000  0.79182000  0.51052000  1
  Si  Si9  1  0.31390000  0.20818000  0.51052000  1
  Si  Si10  1  0.68610000  0.20818000  0.48948000  1
  Si  Si11  1  0.68610000  0.79182000  0.48948000  1
  Si  Si12  1  0.81390000  0.29182000  0.51052000  1
  Si  Si13  1  0.81390000  0.70818000  0.51052000  1
  Si  Si14  1  0.18610000  0.70818000  0.48948000  1
  Si  Si15  1  0.18610000  0.29182000  0.48948000  1
  Si  Si16  1  0.31918000  0.79274000  0.86499000  1
  Si  Si17  1  0.31918000  0.20726000  0.86499000  1
  Si  Si18  1  0.68082000  0.20726000  0.13501000  1
  Si  Si19  1  0.68082000  0.79274000  0.13501000  1
  Si  Si20  1  0.81918000  0.29274000  0.86499000  1
  Si  Si21  1  0.81918000  0.70726000  0.86499000  1
  Si  Si22  1  0.18082000  0.70726000  0.13501000  1
  Si  Si23  1  0.18082000  0.29274000  0.13501000  1
  Si  Si24  1  0.36279000  0.69137000  0.09354000  1
  Si  Si25  1  0.36279000  0.30863000  0.09354000  1
  Si  Si26  1  0.63721000  0.30863000  0.90646000  1
  Si  Si27  1  0.63721000  0.69137000  0.90646000  1
  Si  Si28  1  0.86279000  0.19137000  0.09354000  1
  Si  Si29  1  0.86279000  0.80863000  0.09354000  1
  Si  Si30  1  0.13721000  0.80863000  0.90646000  1
  Si  Si31  1  0.13721000  0.19137000  0.90646000  1
  Si  Si32  1  0.38772000  0.69128000  0.73301000  1
  Si  Si33  1  0.38772000  0.30872000  0.73301000  1
  Si  Si34  1  0.61228000  0.30872000  0.26699000  1
  Si  Si35  1  0.61228000  0.69128000  0.26699000  1
  Si  Si36  1  0.88772000  0.19128000  0.73301000  1
  Si  Si37  1  0.88772000  0.80872000  0.73301000  1
  Si  Si38  1  0.11228000  0.80872000  0.26699000  1
  Si  Si39  1  0.11228000  0.19128000  0.26699000  1
  Si  Si40  1  0.99052000  0.88611000  0.12165000  1
  Si  Si41  1  0.99052000  0.11389000  0.12165000  1
  Si  Si42  1  0.00948000  0.11389000  0.87835000  1
  Si  Si43  1  0.00948000  0.88611000  0.87835000  1
  Si  Si44  1  0.49052000  0.38611000  0.12165000  1
  Si  Si45  1  0.49052000  0.61389000  0.12165000  1
  Si  Si46  1  0.50948000  0.61389000  0.87835000  1
  Si  Si47  1  0.50948000  0.38611000  0.87835000  1
  Si  Si48  1  0.26765000  0.00000000  0.78013000  1
  Si  Si49  1  0.73235000  0.00000000  0.21987000  1
  Si  Si50  1  0.76765000  0.50000000  0.78013000  1
  Si  Si51  1  0.23235000  0.50000000  0.21987000  1
  Si  Si52  1  0.21154000  0.50000000  0.82652000  1
  Si  Si53  1  0.78846000  0.50000000  0.17348000  1
  Si  Si54  1  0.71154000  0.00000000  0.82652000  1
  Si  Si55  1  0.28846000  0.00000000  0.17348000  1
  Si  Si56  1  0.31105000  0.50000000  0.71249000  1
  Si  Si57  1  0.68895000  0.50000000  0.28751000  1
  Si  Si58  1  0.81105000  0.00000000  0.71249000  1
  Si  Si59  1  0.18895000  0.00000000  0.28751000  1
  Si  Si60  1  0.21946000  0.50000000  0.45809000  1
  Si  Si61  1  0.78054000  0.50000000  0.54191000  1
  Si  Si62  1  0.71946000  0.00000000  0.45809000  1
  Si  Si63  1  0.28054000  0.00000000  0.54191000  1
  Si  Si64  1  0.29462000  0.50000000  0.05670000  1
  Si  Si65  1  0.70538000  0.50000000  0.94330000  1
  Si  Si66  1  0.79462000  0.00000000  0.05670000  1
  Si  Si67  1  0.20538000  0.00000000  0.94330000  1
