# generated using pymatgen
data_Al
_symmetry_space_group_name_H-M   'P 1'
_cell_length_a   12.88140000
_cell_length_b   12.88140000
_cell_length_c   40.98100000
_cell_angle_alpha   90.00000000
_cell_angle_beta   90.00000000
_cell_angle_gamma   120.00000000
_symmetry_Int_Tables_number   1
_chemical_formula_structural   Al
_chemical_formula_sum   Al48
_cell_volume   5888.96965013
_cell_formula_units_Z   48
loop_
 _symmetry_equiv_pos_site_id
 _symmetry_equiv_pos_as_xyz
  1  'x, y, z'
loop_
 _atom_site_type_symbol
 _atom_site_label
 _atom_site_symmetry_multiplicity
 _atom_site_fract_x
 _atom_site_fract_y
 _atom_site_fract_z
 _atom_site_occupancy
  Al  Al0  1  0.75700000  0.75900000  0.03620000  1
  Al  Al1  1  0.24300000  0.24100000  0.96380000  1
  Al  Al2  1  0.00200000  0.24300000  0.03620000  1
  Al  Al3  1  0.00200000  0.75900000  0.46380000  1
  Al  Al4  1  0.24100000  0.24300000  0.46380000  1
  Al  Al5  1  0.24100000  0.99800000  0.03620000  1
  Al  Al6  1  0.75900000  0.00200000  0.96380000  1
  Al  Al7  1  0.75900000  0.75700000  0.53620000  1
  Al  Al8  1  0.99800000  0.24100000  0.53620000  1
  Al  Al9  1  0.99800000  0.75700000  0.96380000  1
  Al  Al10  1  0.24300000  0.00200000  0.53620000  1
  Al  Al11  1  0.75700000  0.99800000  0.46380000  1
  Al  Al12  1  0.42200000  0.32700000  0.59600000  1
  Al  Al13  1  0.57800000  0.67300000  0.40400000  1
  Al  Al14  1  0.90500000  0.57800000  0.59600000  1
  Al  Al15  1  0.90500000  0.32700000  0.90400000  1
  Al  Al16  1  0.67300000  0.57800000  0.90400000  1
  Al  Al17  1  0.67300000  0.09500000  0.59600000  1
  Al  Al18  1  0.32700000  0.90500000  0.40400000  1
  Al  Al19  1  0.32700000  0.42200000  0.09600000  1
  Al  Al20  1  0.09500000  0.67300000  0.09600000  1
  Al  Al21  1  0.09500000  0.42200000  0.40400000  1
  Al  Al22  1  0.57800000  0.90500000  0.09600000  1
  Al  Al23  1  0.42200000  0.09500000  0.90400000  1
  Al  Al24  1  0.75100000  0.75100000  0.65440000  1
  Al  Al25  1  0.24900000  0.24900000  0.34560000  1
  Al  Al26  1  0.00000000  0.24900000  0.65440000  1
  Al  Al27  1  0.00000000  0.75100000  0.84560000  1
  Al  Al28  1  0.24900000  0.24900000  0.84560000  1
  Al  Al29  1  0.24900000  0.00000000  0.65440000  1
  Al  Al30  1  0.75100000  0.00000000  0.34560000  1
  Al  Al31  1  0.75100000  0.75100000  0.15440000  1
  Al  Al32  1  0.00000000  0.24900000  0.15440000  1
  Al  Al33  1  0.00000000  0.75100000  0.34560000  1
  Al  Al34  1  0.24900000  0.00000000  0.15440000  1
  Al  Al35  1  0.75100000  0.00000000  0.84560000  1
  Al  Al36  1  0.32800000  0.41800000  0.71350000  1
  Al  Al37  1  0.67200000  0.58200000  0.28650000  1
  Al  Al38  1  0.09000000  0.67200000  0.71350000  1
  Al  Al39  1  0.09000000  0.41800000  0.78650000  1
  Al  Al40  1  0.58200000  0.67200000  0.78650000  1
  Al  Al41  1  0.58200000  0.91000000  0.71350000  1
  Al  Al42  1  0.41800000  0.09000000  0.28650000  1
  Al  Al43  1  0.41800000  0.32800000  0.21350000  1
  Al  Al44  1  0.91000000  0.58200000  0.21350000  1
  Al  Al45  1  0.91000000  0.32800000  0.28650000  1
  Al  Al46  1  0.67200000  0.09000000  0.21350000  1
  Al  Al47  1  0.32800000  0.91000000  0.78650000  1
