# generated using pymatgen
data_PO4
_symmetry_space_group_name_H-M   'P 1'
_cell_length_a   12.88140000
_cell_length_b   12.88140000
_cell_length_c   40.98100000
_cell_angle_alpha   90.00000000
_cell_angle_beta   90.00000000
_cell_angle_gamma   120.00000000
_symmetry_Int_Tables_number   1
_chemical_formula_structural   PO4
_chemical_formula_sum   'P48 O192'
_cell_volume   5888.96965013
_cell_formula_units_Z   48
loop_
 _symmetry_equiv_pos_site_id
 _symmetry_equiv_pos_as_xyz
  1  'x, y, z'
loop_
 _atom_site_type_symbol
 _atom_site_label
 _atom_site_symmetry_multiplicity
 _atom_site_fract_x
 _atom_site_fract_y
 _atom_site_fract_z
 _atom_site_occupancy
  P  P0  1  0.23900000  0.24200000  0.53730000  1
  P  P1  1  0.76100000  0.75800000  0.46270000  1
  P  P2  1  0.00300000  0.76100000  0.53730000  1
  P  P3  1  0.00300000  0.24200000  0.96270000  1
  P  P4  1  0.75800000  0.76100000  0.96270000  1
  P  P5  1  0.75800000  0.99700000  0.53730000  1
  P  P6  1  0.24200000  0.00300000  0.46270000  1
  P  P7  1  0.24200000  0.23900000  0.03730000  1
  P  P8  1  0.99700000  0.75800000  0.03730000  1
  P  P9  1  0.99700000  0.23900000  0.46270000  1
  P  P10  1  0.76100000  0.00300000  0.03730000  1
  P  P11  1  0.23900000  0.99700000  0.96270000  1
  P  P12  1  0.57400000  0.66180000  0.09390000  1
  P  P13  1  0.42600000  0.33820000  0.90610000  1
  P  P14  1  0.08780000  0.42600000  0.09390000  1
  P  P15  1  0.08780000  0.66180000  0.40610000  1
  P  P16  1  0.33820000  0.42600000  0.40610000  1
  P  P17  1  0.33820000  0.91220000  0.09390000  1
  P  P18  1  0.66180000  0.08780000  0.90610000  1
  P  P19  1  0.66180000  0.57400000  0.59390000  1
  P  P20  1  0.91220000  0.33820000  0.59390000  1
  P  P21  1  0.91220000  0.57400000  0.90610000  1
  P  P22  1  0.42600000  0.08780000  0.59390000  1
  P  P23  1  0.57400000  0.91220000  0.40610000  1
  P  P24  1  0.24300000  0.24600000  0.15650000  1
  P  P25  1  0.75700000  0.75400000  0.84350000  1
  P  P26  1  0.00300000  0.75700000  0.15650000  1
  P  P27  1  0.00300000  0.24600000  0.34350000  1
  P  P28  1  0.75400000  0.75700000  0.34350000  1
  P  P29  1  0.75400000  0.99700000  0.15650000  1
  P  P30  1  0.24600000  0.00300000  0.84350000  1
  P  P31  1  0.24600000  0.24300000  0.65650000  1
  P  P32  1  0.99700000  0.75400000  0.65650000  1
  P  P33  1  0.99700000  0.24300000  0.84350000  1
  P  P34  1  0.75700000  0.00300000  0.65650000  1
  P  P35  1  0.24300000  0.99700000  0.34350000  1
  P  P36  1  0.65730000  0.57800000  0.21190000  1
  P  P37  1  0.34270000  0.42200000  0.78810000  1
  P  P38  1  0.92070000  0.34270000  0.21190000  1
  P  P39  1  0.92070000  0.57800000  0.28810000  1
  P  P40  1  0.42200000  0.34270000  0.28810000  1
  P  P41  1  0.42200000  0.07930000  0.21190000  1
  P  P42  1  0.57800000  0.92070000  0.78810000  1
  P  P43  1  0.57800000  0.65730000  0.71190000  1
  P  P44  1  0.07930000  0.42200000  0.71190000  1
  P  P45  1  0.07930000  0.65730000  0.78810000  1
  P  P46  1  0.34270000  0.92070000  0.71190000  1
  P  P47  1  0.65730000  0.07930000  0.28810000  1
  O  O48  1  0.11200000  0.20520000  0.04050000  1
  O  O49  1  0.88800000  0.79480000  0.95950000  1
  O  O50  1  0.09320000  0.88800000  0.04050000  1
  O  O51  1  0.09320000  0.20520000  0.45950000  1
  O  O52  1  0.79480000  0.88800000  0.45950000  1
  O  O53  1  0.79480000  0.90680000  0.04050000  1
  O  O54  1  0.20520000  0.09320000  0.95950000  1
  O  O55  1  0.20520000  0.11200000  0.54050000  1
  O  O56  1  0.90680000  0.79480000  0.54050000  1
  O  O57  1  0.90680000  0.11200000  0.95950000  1
  O  O58  1  0.88800000  0.09320000  0.54050000  1
  O  O59  1  0.11200000  0.90680000  0.45950000  1
  O  O60  1  0.28400000  0.28300000  0.00310000  1
  O  O61  1  0.71600000  0.71700000  0.99690000  1
  O  O62  1  0.99900000  0.71600000  0.00310000  1
  O  O63  1  0.99900000  0.28300000  0.49690000  1
  O  O64  1  0.71700000  0.71600000  0.49690000  1
  O  O65  1  0.71700000  0.00100000  0.00310000  1
  O  O66  1  0.28300000  0.99900000  0.99690000  1
  O  O67  1  0.28300000  0.28400000  0.50310000  1
  O  O68  1  0.00100000  0.71700000  0.50310000  1
  O  O69  1  0.00100000  0.28400000  0.99690000  1
  O  O70  1  0.71600000  0.99900000  0.50310000  1
  O  O71  1  0.28400000  0.00100000  0.49690000  1
  O  O72  1  0.25670000  0.13400000  0.04430000  1
  O  O73  1  0.74330000  0.86600000  0.95570000  1
  O  O74  1  0.87730000  0.74330000  0.04430000  1
  O  O75  1  0.87730000  0.13400000  0.45570000  1
  O  O76  1  0.86600000  0.74330000  0.45570000  1
  O  O77  1  0.86600000  0.12270000  0.04430000  1
  O  O78  1  0.13400000  0.87730000  0.95570000  1
  O  O79  1  0.13400000  0.25670000  0.54430000  1
  O  O80  1  0.12270000  0.86600000  0.54430000  1
  O  O81  1  0.12270000  0.25670000  0.95570000  1
  O  O82  1  0.74330000  0.87730000  0.54430000  1
  O  O83  1  0.25670000  0.12270000  0.45570000  1
  O  O84  1  0.31700000  0.34100000  0.06180000  1
  O  O85  1  0.68300000  0.65900000  0.93820000  1
  O  O86  1  0.02400000  0.68300000  0.06180000  1
  O  O87  1  0.02400000  0.34100000  0.43820000  1
  O  O88  1  0.65900000  0.68300000  0.43820000  1
  O  O89  1  0.65900000  0.97600000  0.06180000  1
  O  O90  1  0.34100000  0.02400000  0.93820000  1
  O  O91  1  0.34100000  0.31700000  0.56180000  1
  O  O92  1  0.97600000  0.65900000  0.56180000  1
  O  O93  1  0.97600000  0.31700000  0.93820000  1
  O  O94  1  0.68300000  0.02400000  0.56180000  1
  O  O95  1  0.31700000  0.97600000  0.43820000  1
  O  O96  1  0.66700000  0.63900000  0.56190000  1
  O  O97  1  0.33300000  0.36100000  0.43810000  1
  O  O98  1  0.97200000  0.33300000  0.56190000  1
  O  O99  1  0.97200000  0.63900000  0.93810000  1
  O  O100  1  0.36100000  0.33300000  0.93810000  1
  O  O101  1  0.36100000  0.02800000  0.56190000  1
  O  O102  1  0.63900000  0.97200000  0.43810000  1
  O  O103  1  0.63900000  0.66700000  0.06190000  1
  O  O104  1  0.02800000  0.36100000  0.06190000  1
  O  O105  1  0.02800000  0.66700000  0.43810000  1
  O  O106  1  0.33300000  0.97200000  0.06190000  1
  O  O107  1  0.66700000  0.02800000  0.93810000  1
  O  O108  1  0.46400000  0.54200000  0.09720000  1
  O  O109  1  0.53600000  0.45800000  0.90280000  1
  O  O110  1  0.07800000  0.53600000  0.09720000  1
  O  O111  1  0.07800000  0.54200000  0.40280000  1
  O  O112  1  0.45800000  0.53600000  0.40280000  1
  O  O113  1  0.45800000  0.92200000  0.09720000  1
  O  O114  1  0.54200000  0.07800000  0.90280000  1
  O  O115  1  0.54200000  0.46400000  0.59720000  1
  O  O116  1  0.92200000  0.45800000  0.59720000  1
  O  O117  1  0.92200000  0.46400000  0.90280000  1
  O  O118  1  0.53600000  0.07800000  0.59720000  1
  O  O119  1  0.46400000  0.92200000  0.40280000  1
  O  O120  1  0.21900000  0.45990000  0.09630000  1
  O  O121  1  0.78100000  0.54010000  0.90370000  1
  O  O122  1  0.24090000  0.78100000  0.09630000  1
  O  O123  1  0.24090000  0.45990000  0.40370000  1
  O  O124  1  0.54010000  0.78100000  0.40370000  1
  O  O125  1  0.54010000  0.75910000  0.09630000  1
  O  O126  1  0.45990000  0.24090000  0.90370000  1
  O  O127  1  0.45990000  0.21900000  0.59630000  1
  O  O128  1  0.75910000  0.54010000  0.59630000  1
  O  O129  1  0.75910000  0.21900000  0.90370000  1
  O  O130  1  0.78100000  0.24090000  0.59630000  1
  O  O131  1  0.21900000  0.75910000  0.40370000  1
  O  O132  1  0.31500000  0.34000000  0.13000000  1
  O  O133  1  0.68500000  0.66000000  0.87000000  1
  O  O134  1  0.02500000  0.68500000  0.13000000  1
  O  O135  1  0.02500000  0.34000000  0.37000000  1
  O  O136  1  0.66000000  0.68500000  0.37000000  1
  O  O137  1  0.66000000  0.97500000  0.13000000  1
  O  O138  1  0.34000000  0.02500000  0.87000000  1
  O  O139  1  0.34000000  0.31500000  0.63000000  1
  O  O140  1  0.97500000  0.66000000  0.63000000  1
  O  O141  1  0.97500000  0.31500000  0.87000000  1
  O  O142  1  0.68500000  0.02500000  0.63000000  1
  O  O143  1  0.31500000  0.97500000  0.37000000  1
  O  O144  1  0.67600000  0.65900000  0.62210000  1
  O  O145  1  0.32400000  0.34100000  0.37790000  1
  O  O146  1  0.98300000  0.32400000  0.62210000  1
  O  O147  1  0.98300000  0.65900000  0.87790000  1
  O  O148  1  0.34100000  0.32400000  0.87790000  1
  O  O149  1  0.34100000  0.01700000  0.62210000  1
  O  O150  1  0.65900000  0.98300000  0.37790000  1
  O  O151  1  0.65900000  0.67600000  0.12210000  1
  O  O152  1  0.01700000  0.34100000  0.12210000  1
  O  O153  1  0.01700000  0.67600000  0.37790000  1
  O  O154  1  0.32400000  0.98300000  0.12210000  1
  O  O155  1  0.67600000  0.01700000  0.87790000  1
  O  O156  1  0.11800000  0.22560000  0.15570000  1
  O  O157  1  0.88200000  0.77440000  0.84430000  1
  O  O158  1  0.10760000  0.88200000  0.15570000  1
  O  O159  1  0.10760000  0.22560000  0.34430000  1
  O  O160  1  0.77440000  0.88200000  0.34430000  1
  O  O161  1  0.77440000  0.89240000  0.15570000  1
  O  O162  1  0.22560000  0.10760000  0.84430000  1
  O  O163  1  0.22560000  0.11800000  0.65570000  1
  O  O164  1  0.89240000  0.77440000  0.65570000  1
  O  O165  1  0.89240000  0.11800000  0.84430000  1
  O  O166  1  0.88200000  0.10760000  0.65570000  1
  O  O167  1  0.11800000  0.89240000  0.34430000  1
  O  O168  1  0.25000000  0.13300000  0.15040000  1
  O  O169  1  0.75000000  0.86700000  0.84960000  1
  O  O170  1  0.88300000  0.75000000  0.15040000  1
  O  O171  1  0.88300000  0.13300000  0.34960000  1
  O  O172  1  0.86700000  0.75000000  0.34960000  1
  O  O173  1  0.86700000  0.11700000  0.15040000  1
  O  O174  1  0.13300000  0.88300000  0.84960000  1
  O  O175  1  0.13300000  0.25000000  0.65040000  1
  O  O176  1  0.11700000  0.86700000  0.65040000  1
  O  O177  1  0.11700000  0.25000000  0.84960000  1
  O  O178  1  0.75000000  0.88300000  0.65040000  1
  O  O179  1  0.25000000  0.11700000  0.34960000  1
  O  O180  1  0.29600000  0.29600000  0.18950000  1
  O  O181  1  0.70400000  0.70400000  0.81050000  1
  O  O182  1  0.00000000  0.70400000  0.18950000  1
  O  O183  1  0.00000000  0.29600000  0.31050000  1
  O  O184  1  0.70400000  0.70400000  0.31050000  1
  O  O185  1  0.70400000  0.00000000  0.18950000  1
  O  O186  1  0.29600000  0.00000000  0.81050000  1
  O  O187  1  0.29600000  0.29600000  0.68950000  1
  O  O188  1  0.00000000  0.70400000  0.68950000  1
  O  O189  1  0.00000000  0.29600000  0.81050000  1
  O  O190  1  0.70400000  0.00000000  0.68950000  1
  O  O191  1  0.29600000  0.00000000  0.31050000  1
  O  O192  1  0.68200000  0.67800000  0.68930000  1
  O  O193  1  0.31800000  0.32200000  0.31070000  1
  O  O194  1  0.99600000  0.31800000  0.68930000  1
  O  O195  1  0.99600000  0.67800000  0.81070000  1
  O  O196  1  0.32200000  0.31800000  0.81070000  1
  O  O197  1  0.32200000  0.00400000  0.68930000  1
  O  O198  1  0.67800000  0.99600000  0.31070000  1
  O  O199  1  0.67800000  0.68200000  0.18930000  1
  O  O200  1  0.00400000  0.32200000  0.18930000  1
  O  O201  1  0.00400000  0.68200000  0.31070000  1
  O  O202  1  0.31800000  0.99600000  0.18930000  1
  O  O203  1  0.68200000  0.00400000  0.81070000  1
  O  O204  1  0.54000000  0.46300000  0.20190000  1
  O  O205  1  0.46000000  0.53700000  0.79810000  1
  O  O206  1  0.92300000  0.46000000  0.20190000  1
  O  O207  1  0.92300000  0.46300000  0.29810000  1
  O  O208  1  0.53700000  0.46000000  0.29810000  1
  O  O209  1  0.53700000  0.07700000  0.20190000  1
  O  O210  1  0.46300000  0.92300000  0.79810000  1
  O  O211  1  0.46300000  0.54000000  0.70190000  1
  O  O212  1  0.07700000  0.53700000  0.70190000  1
  O  O213  1  0.07700000  0.54000000  0.79810000  1
  O  O214  1  0.46000000  0.92300000  0.70190000  1
  O  O215  1  0.54000000  0.07700000  0.29810000  1
  O  O216  1  0.44860000  0.21100000  0.20910000  1
  O  O217  1  0.55140000  0.78900000  0.79090000  1
  O  O218  1  0.76240000  0.55140000  0.20910000  1
  O  O219  1  0.76240000  0.21100000  0.29090000  1
  O  O220  1  0.78900000  0.55140000  0.29090000  1
  O  O221  1  0.78900000  0.23760000  0.20910000  1
  O  O222  1  0.21100000  0.76240000  0.79090000  1
  O  O223  1  0.21100000  0.44860000  0.70910000  1
  O  O224  1  0.23760000  0.78900000  0.70910000  1
  O  O225  1  0.23760000  0.44860000  0.79090000  1
  O  O226  1  0.55140000  0.76240000  0.70910000  1
  O  O227  1  0.44860000  0.23760000  0.29090000  1
  O  O228  1  0.37700000  0.34540000  0.25290000  1
  O  O229  1  0.62300000  0.65460000  0.74710000  1
  O  O230  1  0.96840000  0.62300000  0.25290000  1
  O  O231  1  0.96840000  0.34540000  0.24710000  1
  O  O232  1  0.65460000  0.62300000  0.24710000  1
  O  O233  1  0.65460000  0.03160000  0.25290000  1
  O  O234  1  0.34540000  0.96840000  0.74710000  1
  O  O235  1  0.34540000  0.37700000  0.75290000  1
  O  O236  1  0.03160000  0.65460000  0.75290000  1
  O  O237  1  0.03160000  0.37700000  0.74710000  1
  O  O238  1  0.62300000  0.96840000  0.75290000  1
  O  O239  1  0.37700000  0.03160000  0.24710000  1
