# generated using pymatgen
data_AlO4
_symmetry_space_group_name_H-M   'P 1'
_cell_length_a   12.88140000
_cell_length_b   12.88140000
_cell_length_c   40.98100000
_cell_angle_alpha   90.00000000
_cell_angle_beta   90.00000000
_cell_angle_gamma   120.00000000
_symmetry_Int_Tables_number   1
_chemical_formula_structural   AlO4
_chemical_formula_sum   'Al1 O4'
_cell_volume   5888.96965013
_cell_formula_units_Z   1
loop_
 _symmetry_equiv_pos_site_id
 _symmetry_equiv_pos_as_xyz
  1  'x, y, z'
loop_
 _atom_site_type_symbol
 _atom_site_label
 _atom_site_symmetry_multiplicity
 _atom_site_fract_x
 _atom_site_fract_y
 _atom_site_fract_z
 _atom_site_occupancy
  Al  Al0  1  0.90500000  0.57800000  0.59600000  1
  O  O1  1  0.97600000  0.65900000  0.56180000  1
  O  O2  1  0.92200000  0.45800000  0.59720000  1
  O  O3  1  0.75910000  0.54010000  0.59630000  1
  O  O4  1  0.97500000  0.66000000  0.63000000  1
