# generated using pymatgen
data_SiO4
_symmetry_space_group_name_H-M   'P 1'
_cell_length_a   19.93300000
_cell_length_b   19.93300000
_cell_length_c   19.93300000
_cell_angle_alpha   90.00000000
_cell_angle_beta   90.00000000
_cell_angle_gamma   90.00000000
_symmetry_Int_Tables_number   1
_chemical_formula_structural   SiO4
_chemical_formula_sum   'Si1 O4'
_cell_volume   7919.86903924
_cell_formula_units_Z   1
loop_
 _symmetry_equiv_pos_site_id
 _symmetry_equiv_pos_as_xyz
  1  'x, y, z'
loop_
 _atom_site_type_symbol
 _atom_site_label
 _atom_site_symmetry_multiplicity
 _atom_site_fract_x
 _atom_site_fract_y
 _atom_site_fract_z
 _atom_site_occupancy
  Si  Si0  1  0.93200000  0.43200000  0.12880000  1
  O  O1  1  0.95150000  0.45150000  0.20480000  1
  O  O2  1  1.00000000  0.40690000  0.09310000  1
  O  O3  1  0.90690000  0.50000000  0.09310000  1
  O  O4  1  0.87500000  0.37500000  0.12790000  1
