# generated using pymatgen
data_SiO4
_symmetry_space_group_name_H-M   'P 1'
_cell_length_a   11.45400000
_cell_length_b   21.69500000
_cell_length_c   7.22700000
_cell_angle_alpha   90.00000000
_cell_angle_beta   93.15400000
_cell_angle_gamma   90.00000000
_symmetry_Int_Tables_number   1
_chemical_formula_structural   SiO4
_chemical_formula_sum   'Si1 O4'
_cell_volume   1793.14969003
_cell_formula_units_Z   1
loop_
 _symmetry_equiv_pos_site_id
 _symmetry_equiv_pos_as_xyz
  1  'x, y, z'
loop_
 _atom_site_type_symbol
 _atom_site_label
 _atom_site_symmetry_multiplicity
 _atom_site_fract_x
 _atom_site_fract_y
 _atom_site_fract_z
 _atom_site_occupancy
  Si  Si0  1  0.89080000  0.56630000  0.65270000  1
  O  O1  1  0.93410000  0.63090000  0.74230000  1
  O  O2  1  0.94750000  0.51010000  0.77220000  1
  O  O3  1  0.93230000  0.56130000  0.44410000  1
  O  O4  1  0.75050000  0.56270000  0.65180000  1
