# generated using pymatgen
data_SiO4
_symmetry_space_group_name_H-M   'P 1'
_cell_length_a   11.45400000
_cell_length_b   21.69500000
_cell_length_c   7.22700000
_cell_angle_alpha   90.00000000
_cell_angle_beta   93.15400000
_cell_angle_gamma   90.00000000
_symmetry_Int_Tables_number   1
_chemical_formula_structural   SiO4
_chemical_formula_sum   'Si1 O4'
_cell_volume   1793.14969003
_cell_formula_units_Z   1
loop_
 _symmetry_equiv_pos_site_id
 _symmetry_equiv_pos_as_xyz
  1  'x, y, z'
loop_
 _atom_site_type_symbol
 _atom_site_label
 _atom_site_symmetry_multiplicity
 _atom_site_fract_x
 _atom_site_fract_y
 _atom_site_fract_z
 _atom_site_occupancy
  Si  Si0  1  0.26430000  0.98900000  0.92050000  1
  O  O1  1  0.22500000  0.92480000  1.00970000  1
  O  O2  1  0.32030000  0.97580000  0.72500000  1
  O  O3  1  0.35890000  1.02180000  1.06140000  1
  O  O4  1  0.15230000  1.03340000  0.89020000  1
