# generated using pymatgen
data_O2
_symmetry_space_group_name_H-M   'P 1'
_cell_length_a   11.45400000
_cell_length_b   21.69500000
_cell_length_c   7.22700000
_cell_angle_alpha   90.00000000
_cell_angle_beta   93.15400000
_cell_angle_gamma   90.00000000
_symmetry_Int_Tables_number   1
_chemical_formula_structural   O2
_chemical_formula_sum   O64
_cell_volume   1793.14969003
_cell_formula_units_Z   32
loop_
 _symmetry_equiv_pos_site_id
 _symmetry_equiv_pos_as_xyz
  1  'x, y, z'
loop_
 _atom_site_type_symbol
 _atom_site_label
 _atom_site_symmetry_multiplicity
 _atom_site_fract_x
 _atom_site_fract_y
 _atom_site_fract_z
 _atom_site_occupancy
  O  O0  1  0.22500000  0.92480000  0.00970000  1
  O  O1  1  0.77500000  0.42480000  0.99030000  1
  O  O2  1  0.77500000  0.07520000  0.99030000  1
  O  O3  1  0.22500000  0.57520000  0.00970000  1
  O  O4  1  0.32030000  0.97580000  0.72500000  1
  O  O5  1  0.67970000  0.47580000  0.27500000  1
  O  O6  1  0.67970000  0.02420000  0.27500000  1
  O  O7  1  0.32030000  0.52420000  0.72500000  1
  O  O8  1  0.35890000  0.02180000  0.06140000  1
  O  O9  1  0.64110000  0.52180000  0.93860000  1
  O  O10  1  0.64110000  0.97820000  0.93860000  1
  O  O11  1  0.35890000  0.47820000  0.06140000  1
  O  O12  1  0.15230000  0.03340000  0.89020000  1
  O  O13  1  0.84770000  0.53340000  0.10980000  1
  O  O14  1  0.84770000  0.96660000  0.10980000  1
  O  O15  1  0.15230000  0.46660000  0.89020000  1
  O  O16  1  0.02860000  0.60790000  0.15440000  1
  O  O17  1  0.97140000  0.10790000  0.84560000  1
  O  O18  1  0.97140000  0.39210000  0.84560000  1
  O  O19  1  0.02860000  0.89210000  0.15440000  1
  O  O20  1  0.22410000  0.66730000  0.24510000  1
  O  O21  1  0.77590000  0.16730000  0.75490000  1
  O  O22  1  0.77590000  0.33270000  0.75490000  1
  O  O23  1  0.22410000  0.83270000  0.24510000  1
  O  O24  1  0.12260000  0.67900000  0.91010000  1
  O  O25  1  0.87740000  0.17900000  0.08990000  1
  O  O26  1  0.87740000  0.32100000  0.08990000  1
  O  O27  1  0.12260000  0.82100000  0.91010000  1
  O  O28  1  0.27350000  0.75000000  0.50310000  1
  O  O29  1  0.72650000  0.25000000  0.49690000  1
  O  O30  1  0.32660000  0.63340000  0.56500000  1
  O  O31  1  0.67340000  0.13340000  0.43500000  1
  O  O32  1  0.67340000  0.36660000  0.43500000  1
  O  O33  1  0.32660000  0.86660000  0.56500000  1
  O  O34  1  0.10710000  0.66880000  0.54730000  1
  O  O35  1  0.89290000  0.16880000  0.45270000  1
  O  O36  1  0.89290000  0.33120000  0.45270000  1
  O  O37  1  0.10710000  0.83120000  0.54730000  1
  O  O38  1  0.38570000  0.53440000  0.38340000  1
  O  O39  1  0.61430000  0.03440000  0.61660000  1
  O  O40  1  0.61430000  0.46560000  0.61660000  1
  O  O41  1  0.38570000  0.96560000  0.38340000  1
  O  O42  1  0.52210000  0.57510000  0.66080000  1
  O  O43  1  0.47790000  0.07510000  0.33920000  1
  O  O44  1  0.47790000  0.42490000  0.33920000  1
  O  O45  1  0.52210000  0.92490000  0.66080000  1
  O  O46  1  0.93410000  0.63090000  0.74230000  1
  O  O47  1  0.06590000  0.13090000  0.25770000  1
  O  O48  1  0.06590000  0.36910000  0.25770000  1
  O  O49  1  0.93410000  0.86910000  0.74230000  1
  O  O50  1  0.97850000  0.75000000  0.71280000  1
  O  O51  1  0.02150000  0.25000000  0.28720000  1
  O  O52  1  0.94750000  0.98990000  0.77220000  1
  O  O53  1  0.05250000  0.48990000  0.22780000  1
  O  O54  1  0.05250000  0.01010000  0.22780000  1
  O  O55  1  0.94750000  0.51010000  0.77220000  1
  O  O56  1  0.06770000  0.06130000  0.55590000  1
  O  O57  1  0.93230000  0.56130000  0.44410000  1
  O  O58  1  0.93230000  0.93870000  0.44410000  1
  O  O59  1  0.06770000  0.43870000  0.55590000  1
  O  O60  1  0.24950000  0.06270000  0.34820000  1
  O  O61  1  0.75050000  0.56270000  0.65180000  1
  O  O62  1  0.75050000  0.93730000  0.65180000  1
  O  O63  1  0.24950000  0.43730000  0.34820000  1
