# generated using pymatgen
data_Si
_symmetry_space_group_name_H-M   'P 1'
_cell_length_a   11.45400000
_cell_length_b   21.69500000
_cell_length_c   7.22700000
_cell_angle_alpha   90.00000000
_cell_angle_beta   93.15400000
_cell_angle_gamma   90.00000000
_symmetry_Int_Tables_number   1
_chemical_formula_structural   Si
_chemical_formula_sum   Si32
_cell_volume   1793.14969003
_cell_formula_units_Z   32
loop_
 _symmetry_equiv_pos_site_id
 _symmetry_equiv_pos_as_xyz
  1  'x, y, z'
loop_
 _atom_site_type_symbol
 _atom_site_label
 _atom_site_symmetry_multiplicity
 _atom_site_fract_x
 _atom_site_fract_y
 _atom_site_fract_z
 _atom_site_occupancy
  Si  Si0  1  0.26430000  0.98900000  0.92050000  1
  Si  Si1  1  0.73570000  0.48900000  0.07950000  1
  Si  Si2  1  0.73570000  0.01100000  0.07950000  1
  Si  Si3  1  0.26430000  0.51100000  0.92050000  1
  Si  Si4  1  0.15020000  0.63240000  0.08040000  1
  Si  Si5  1  0.84980000  0.13240000  0.91960000  1
  Si  Si6  1  0.84980000  0.36760000  0.91960000  1
  Si  Si7  1  0.15020000  0.86760000  0.08040000  1
  Si  Si8  1  0.23330000  0.67980000  0.46500000  1
  Si  Si9  1  0.76670000  0.17980000  0.53500000  1
  Si  Si10  1  0.76670000  0.32020000  0.53500000  1
  Si  Si11  1  0.23330000  0.82020000  0.46500000  1
  Si  Si12  1  0.38820000  0.56690000  0.58390000  1
  Si  Si13  1  0.61180000  0.06690000  0.41610000  1
  Si  Si14  1  0.61180000  0.43310000  0.41610000  1
  Si  Si15  1  0.38820000  0.93310000  0.58390000  1
  Si  Si16  1  0.03500000  0.68200000  0.72820000  1
  Si  Si17  1  0.96500000  0.18200000  0.27180000  1
  Si  Si18  1  0.96500000  0.31800000  0.27180000  1
  Si  Si19  1  0.03500000  0.81800000  0.72820000  1
  Si  Si20  1  0.03470000  0.04800000  0.76560000  1
  Si  Si21  1  0.96530000  0.54800000  0.23440000  1
  Si  Si22  1  0.96530000  0.95200000  0.23440000  1
  Si  Si23  1  0.03470000  0.45200000  0.76560000  1
  Si  Si24  1  0.10920000  0.06630000  0.34730000  1
  Si  Si25  1  0.89080000  0.56630000  0.65270000  1
  Si  Si26  1  0.89080000  0.93370000  0.65270000  1
  Si  Si27  1  0.10920000  0.43370000  0.34730000  1
  Si  Si28  1  0.36790000  0.03150000  0.28280000  1
  Si  Si29  1  0.63210000  0.53150000  0.71720000  1
  Si  Si30  1  0.63210000  0.96850000  0.71720000  1
  Si  Si31  1  0.36790000  0.46850000  0.28280000  1
