# generated using pymatgen
data_O2
_symmetry_space_group_name_H-M   'P 1'
_cell_length_a   20.91400000
_cell_length_b   20.91400000
_cell_length_c   5.06100000
_cell_angle_alpha   90.00000000
_cell_angle_beta   90.00000000
_cell_angle_gamma   120.00000000
_symmetry_Int_Tables_number   1
_chemical_formula_structural   O2
_chemical_formula_sum   O76
_cell_volume   1917.08414916
_cell_formula_units_Z   38
loop_
 _symmetry_equiv_pos_site_id
 _symmetry_equiv_pos_as_xyz
  1  'x, y, z'
loop_
 _atom_site_type_symbol
 _atom_site_label
 _atom_site_symmetry_multiplicity
 _atom_site_fract_x
 _atom_site_fract_y
 _atom_site_fract_z
 _atom_site_occupancy
  O  O0  1  0.66666667  0.13470000  0.83330000  1
  O  O1  1  0.33333333  0.46803333  0.16663333  1
  O  O2  1  0.00000000  0.80136667  0.49996667  1
  O  O3  1  0.86530000  0.53196667  0.83330000  1
  O  O4  1  0.53196667  0.86530000  0.16663333  1
  O  O5  1  0.19863333  0.19863333  0.49996667  1
  O  O6  1  0.46803333  0.33333333  0.83330000  1
  O  O7  1  0.13470000  0.66666667  0.16663333  1
  O  O8  1  0.80136667  0.00000000  0.49996667  1
  O  O9  1  0.86530000  0.33333333  0.83330000  1
  O  O10  1  0.53196667  0.66666667  0.16663333  1
  O  O11  1  0.19863333  0.00000000  0.49996667  1
  O  O12  1  0.46803333  0.13470000  0.83330000  1
  O  O13  1  0.13470000  0.46803333  0.16663333  1
  O  O14  1  0.80136667  0.80136667  0.49996667  1
  O  O15  1  0.66666667  0.53196667  0.83330000  1
  O  O16  1  0.33333333  0.86530000  0.16663333  1
  O  O17  1  0.00000000  0.19863333  0.49996667  1
  O  O18  1  0.57600000  0.00000000  0.00000000  1
  O  O19  1  0.24266667  0.33333333  0.33333333  1
  O  O20  1  0.90933333  0.66666667  0.66666667  1
  O  O21  1  0.00000000  0.57600000  0.00000000  1
  O  O22  1  0.66666667  0.90933333  0.33333333  1
  O  O23  1  0.33333333  0.24266667  0.66666667  1
  O  O24  1  0.42400000  0.42400000  0.00000000  1
  O  O25  1  0.09066667  0.75733333  0.33333333  1
  O  O26  1  0.75733333  0.09066667  0.66666667  1
  O  O27  1  0.00000000  0.42400000  0.00000000  1
  O  O28  1  0.66666667  0.75733333  0.33333333  1
  O  O29  1  0.33333333  0.09066667  0.66666667  1
  O  O30  1  0.42400000  0.00000000  0.00000000  1
  O  O31  1  0.09066667  0.33333333  0.33333333  1
  O  O32  1  0.75733333  0.66666667  0.66666667  1
  O  O33  1  0.57600000  0.57600000  0.00000000  1
  O  O34  1  0.24266667  0.90933333  0.33333333  1
  O  O35  1  0.90933333  0.24266667  0.66666667  1
  O  O36  1  0.55440000  0.10890000  0.13820000  1
  O  O37  1  0.22106667  0.44223333  0.47153333  1
  O  O38  1  0.88773333  0.77556667  0.80486667  1
  O  O39  1  0.89110000  0.44550000  0.13820000  1
  O  O40  1  0.55776667  0.77883333  0.47153333  1
  O  O41  1  0.22443333  0.11216667  0.80486667  1
  O  O42  1  0.55450000  0.44560000  0.13820000  1
  O  O43  1  0.22116667  0.77893333  0.47153333  1
  O  O44  1  0.88783333  0.11226667  0.80486667  1
  O  O45  1  0.22443333  0.11226667  0.80486667  1
  O  O46  1  0.88773333  0.11216667  0.80486667  1
  O  O47  1  0.44560000  0.89110000  0.86180000  1
  O  O48  1  0.11226667  0.22443333  0.19513333  1
  O  O49  1  0.77893333  0.55776667  0.52846667  1
  O  O50  1  0.10890000  0.55450000  0.86180000  1
  O  O51  1  0.77556667  0.88783333  0.19513333  1
  O  O52  1  0.44223333  0.22116667  0.52846667  1
  O  O53  1  0.44550000  0.55440000  0.86180000  1
  O  O54  1  0.11216667  0.88773333  0.19513333  1
  O  O55  1  0.77883333  0.22106667  0.52846667  1
  O  O56  1  0.11216667  0.22443333  0.19513333  1
  O  O57  1  0.11226667  0.88783333  0.19513333  1
  O  O58  1  0.66666667  0.10060000  0.33333333  1
  O  O59  1  0.33333333  0.43393333  0.66666667  1
  O  O60  1  0.00000000  0.76726667  0.00000000  1
  O  O61  1  0.89940000  0.56606667  0.33333333  1
  O  O62  1  0.56606667  0.89940000  0.66666667  1
  O  O63  1  0.23273333  0.23273333  0.00000000  1
  O  O64  1  0.43393333  0.33333333  0.33333333  1
  O  O65  1  0.10060000  0.66666667  0.66666667  1
  O  O66  1  0.76726667  0.00000000  0.00000000  1
  O  O67  1  0.89940000  0.33333333  0.33333333  1
  O  O68  1  0.56606667  0.66666667  0.66666667  1
  O  O69  1  0.23273333  0.00000000  0.00000000  1
  O  O70  1  0.43393333  0.10060000  0.33333333  1
  O  O71  1  0.10060000  0.43393333  0.66666667  1
  O  O72  1  0.76726667  0.76726667  0.00000000  1
  O  O73  1  0.66666667  0.56606667  0.33333333  1
  O  O74  1  0.33333333  0.89940000  0.66666667  1
  O  O75  1  0.00000000  0.23273333  0.00000000  1
