# generated using pymatgen
data_Si
_symmetry_space_group_name_H-M   'P 1'
_cell_length_a   20.91400000
_cell_length_b   20.91400000
_cell_length_c   5.06100000
_cell_angle_alpha   90.00000000
_cell_angle_beta   90.00000000
_cell_angle_gamma   120.00000000
_symmetry_Int_Tables_number   1
_chemical_formula_structural   Si
_chemical_formula_sum   Si36
_cell_volume   1917.08414916
_cell_formula_units_Z   36
loop_
 _symmetry_equiv_pos_site_id
 _symmetry_equiv_pos_as_xyz
  1  'x, y, z'
loop_
 _atom_site_type_symbol
 _atom_site_label
 _atom_site_symmetry_multiplicity
 _atom_site_fract_x
 _atom_site_fract_y
 _atom_site_fract_z
 _atom_site_occupancy
  Si  Si0  1  0.61600000  0.08610000  0.07630000  1
  Si  Si1  1  0.28266667  0.41943333  0.40963333  1
  Si  Si2  1  0.94933333  0.75276667  0.74296667  1
  Si  Si3  1  0.91390000  0.52990000  0.07630000  1
  Si  Si4  1  0.58056667  0.86323333  0.40963333  1
  Si  Si5  1  0.24723333  0.19656667  0.74296667  1
  Si  Si6  1  0.47010000  0.38400000  0.07630000  1
  Si  Si7  1  0.13676667  0.71733333  0.40963333  1
  Si  Si8  1  0.80343333  0.05066667  0.74296667  1
  Si  Si9  1  0.91390000  0.38400000  0.07630000  1
  Si  Si10  1  0.58056667  0.71733333  0.40963333  1
  Si  Si11  1  0.24723333  0.05066667  0.74296667  1
  Si  Si12  1  0.47010000  0.08610000  0.07630000  1
  Si  Si13  1  0.13676667  0.41943333  0.40963333  1
  Si  Si14  1  0.80343333  0.75276667  0.74296667  1
  Si  Si15  1  0.61600000  0.52990000  0.07630000  1
  Si  Si16  1  0.28266667  0.86323333  0.40963333  1
  Si  Si17  1  0.94933333  0.19656667  0.74296667  1
  Si  Si18  1  0.38400000  0.91390000  0.92370000  1
  Si  Si19  1  0.05066667  0.24723333  0.25703333  1
  Si  Si20  1  0.71733333  0.58056667  0.59036667  1
  Si  Si21  1  0.08610000  0.47010000  0.92370000  1
  Si  Si22  1  0.75276667  0.80343333  0.25703333  1
  Si  Si23  1  0.41943333  0.13676667  0.59036667  1
  Si  Si24  1  0.52990000  0.61600000  0.92370000  1
  Si  Si25  1  0.19656667  0.94933333  0.25703333  1
  Si  Si26  1  0.86323333  0.28266667  0.59036667  1
  Si  Si27  1  0.08610000  0.61600000  0.92370000  1
  Si  Si28  1  0.75276667  0.94933333  0.25703333  1
  Si  Si29  1  0.41943333  0.28266667  0.59036667  1
  Si  Si30  1  0.52990000  0.91390000  0.92370000  1
  Si  Si31  1  0.19656667  0.24723333  0.25703333  1
  Si  Si32  1  0.86323333  0.58056667  0.59036667  1
  Si  Si33  1  0.38400000  0.47010000  0.92370000  1
  Si  Si34  1  0.05066667  0.80343333  0.25703333  1
  Si  Si35  1  0.71733333  0.13676667  0.59036667  1
