# generated using pymatgen
data_SiO4
_symmetry_space_group_name_H-M   'P 1'
_cell_length_a   20.91400000
_cell_length_b   20.91400000
_cell_length_c   5.06100000
_cell_angle_alpha   90.00000000
_cell_angle_beta   90.00000000
_cell_angle_gamma   120.00000000
_symmetry_Int_Tables_number   1
_chemical_formula_structural   SiO4
_chemical_formula_sum   'Si1 O4'
_cell_volume   1917.08414916
_cell_formula_units_Z   1
loop_
 _symmetry_equiv_pos_site_id
 _symmetry_equiv_pos_as_xyz
  1  'x, y, z'
loop_
 _atom_site_type_symbol
 _atom_site_label
 _atom_site_symmetry_multiplicity
 _atom_site_fract_x
 _atom_site_fract_y
 _atom_site_fract_z
 _atom_site_occupancy
  Si  Si0  1  0.52990000  0.61600000  0.92370000  1
  O  O1  1  0.53196667  0.66666667  1.16663333  1
  O  O2  1  0.57600000  0.57600000  1.00000000  1
  O  O3  1  0.44550000  0.55440000  0.86180000  1
  O  O4  1  0.56606667  0.66666667  0.66666667  1
