# generated using pymatgen
data_SiO4
_symmetry_space_group_name_H-M   'P 1'
_cell_length_a   21.11900000
_cell_length_b   12.97100000
_cell_length_c   9.67200000
_cell_angle_alpha   90.00000000
_cell_angle_beta   108.36700000
_cell_angle_gamma   90.00000000
_symmetry_Int_Tables_number   1
_chemical_formula_structural   SiO4
_chemical_formula_sum   'Si1 O4'
_cell_volume   2514.52347182
_cell_formula_units_Z   1
loop_
 _symmetry_equiv_pos_site_id
 _symmetry_equiv_pos_as_xyz
  1  'x, y, z'
loop_
 _atom_site_type_symbol
 _atom_site_label
 _atom_site_symmetry_multiplicity
 _atom_site_fract_x
 _atom_site_fract_y
 _atom_site_fract_z
 _atom_site_occupancy
  Si  Si0  1  0.71730000  0.38550000  0.37670000  1
  O  O1  1  0.65990000  0.29920000  0.34930000  1
  O  O2  1  0.75290000  0.37640000  0.25230000  1
  O  O3  1  0.68720000  0.50000000  0.37230000  1
  O  O4  1  0.77160000  0.36590000  0.53380000  1
