# generated using pymatgen
data_SiO4
_symmetry_space_group_name_H-M   'P 1'
_cell_length_a   21.11900000
_cell_length_b   12.97100000
_cell_length_c   9.67200000
_cell_angle_alpha   90.00000000
_cell_angle_beta   108.36700000
_cell_angle_gamma   90.00000000
_symmetry_Int_Tables_number   1
_chemical_formula_structural   SiO4
_chemical_formula_sum   'Si1 O4'
_cell_volume   2514.52347182
_cell_formula_units_Z   1
loop_
 _symmetry_equiv_pos_site_id
 _symmetry_equiv_pos_as_xyz
  1  'x, y, z'
loop_
 _atom_site_type_symbol
 _atom_site_label
 _atom_site_symmetry_multiplicity
 _atom_site_fract_x
 _atom_site_fract_y
 _atom_site_fract_z
 _atom_site_occupancy
  Si  Si0  1  0.21470000  0.61900000  0.10680000  1
  O  O1  1  0.16010000  0.63560000  0.18960000  1
  O  O2  1  0.23750000  0.50000000  0.11950000  1
  O  O3  1  0.27900000  0.69000000  0.18100000  1
  O  O4  1  0.18250000  0.64940000  -0.06220000  1
