# generated using pymatgen
data_SiO4
_symmetry_space_group_name_H-M   'P 1'
_cell_length_a   21.11900000
_cell_length_b   12.97100000
_cell_length_c   9.67200000
_cell_angle_alpha   90.00000000
_cell_angle_beta   108.36700000
_cell_angle_gamma   90.00000000
_symmetry_Int_Tables_number   1
_chemical_formula_structural   SiO4
_chemical_formula_sum   'Si1 O4'
_cell_volume   2514.52347182
_cell_formula_units_Z   1
loop_
 _symmetry_equiv_pos_site_id
 _symmetry_equiv_pos_as_xyz
  1  'x, y, z'
loop_
 _atom_site_type_symbol
 _atom_site_label
 _atom_site_symmetry_multiplicity
 _atom_site_fract_x
 _atom_site_fract_y
 _atom_site_fract_z
 _atom_site_occupancy
  Si  Si0  1  0.28530000  0.88100000  0.89320000  1
  O  O1  1  0.33990000  0.86440000  0.81040000  1
  O  O2  1  0.26250000  1.00000000  0.88050000  1
  O  O3  1  0.22100000  0.81000000  0.81900000  1
  O  O4  1  0.31750000  0.85060000  1.06220000  1
