# generated using pymatgen
data_Si
_symmetry_space_group_name_H-M   'P 1'
_cell_length_a   21.11900000
_cell_length_b   12.97100000
_cell_length_c   9.67200000
_cell_angle_alpha   90.00000000
_cell_angle_beta   108.36700000
_cell_angle_gamma   90.00000000
_symmetry_Int_Tables_number   1
_chemical_formula_structural   Si
_chemical_formula_sum   Si40
_cell_volume   2514.52347182
_cell_formula_units_Z   40
loop_
 _symmetry_equiv_pos_site_id
 _symmetry_equiv_pos_as_xyz
  1  'x, y, z'
loop_
 _atom_site_type_symbol
 _atom_site_label
 _atom_site_symmetry_multiplicity
 _atom_site_fract_x
 _atom_site_fract_y
 _atom_site_fract_z
 _atom_site_occupancy
  Si  Si0  1  0.71470000  0.11900000  0.10680000  1
  Si  Si1  1  0.21470000  0.61900000  0.10680000  1
  Si  Si2  1  0.28530000  0.11900000  0.89320000  1
  Si  Si3  1  0.78530000  0.61900000  0.89320000  1
  Si  Si4  1  0.28530000  0.88100000  0.89320000  1
  Si  Si5  1  0.78530000  0.38100000  0.89320000  1
  Si  Si6  1  0.71470000  0.88100000  0.10680000  1
  Si  Si7  1  0.21470000  0.38100000  0.10680000  1
  Si  Si8  1  0.78270000  0.11450000  0.62330000  1
  Si  Si9  1  0.28270000  0.61450000  0.62330000  1
  Si  Si10  1  0.21730000  0.11450000  0.37670000  1
  Si  Si11  1  0.71730000  0.61450000  0.37670000  1
  Si  Si12  1  0.21730000  0.88550000  0.37670000  1
  Si  Si13  1  0.71730000  0.38550000  0.37670000  1
  Si  Si14  1  0.78270000  0.88550000  0.62330000  1
  Si  Si15  1  0.28270000  0.38550000  0.62330000  1
  Si  Si16  1  0.66100000  0.82500000  0.34810000  1
  Si  Si17  1  0.16100000  0.32500000  0.34810000  1
  Si  Si18  1  0.33900000  0.82500000  0.65190000  1
  Si  Si19  1  0.83900000  0.32500000  0.65190000  1
  Si  Si20  1  0.33900000  0.17500000  0.65190000  1
  Si  Si21  1  0.83900000  0.67500000  0.65190000  1
  Si  Si22  1  0.66100000  0.17500000  0.34810000  1
  Si  Si23  1  0.16100000  0.67500000  0.34810000  1
  Si  Si24  1  0.57640000  0.11870000  0.53390000  1
  Si  Si25  1  0.07640000  0.61870000  0.53390000  1
  Si  Si26  1  0.42360000  0.11870000  0.46610000  1
  Si  Si27  1  0.92360000  0.61870000  0.46610000  1
  Si  Si28  1  0.42360000  0.88130000  0.46610000  1
  Si  Si29  1  0.92360000  0.38130000  0.46610000  1
  Si  Si30  1  0.57640000  0.88130000  0.53390000  1
  Si  Si31  1  0.07640000  0.38130000  0.53390000  1
  Si  Si32  1  0.69340000  0.80640000  0.79140000  1
  Si  Si33  1  0.19340000  0.30640000  0.79140000  1
  Si  Si34  1  0.30660000  0.80640000  0.20860000  1
  Si  Si35  1  0.80660000  0.30640000  0.20860000  1
  Si  Si36  1  0.30660000  0.19360000  0.20860000  1
  Si  Si37  1  0.80660000  0.69360000  0.20860000  1
  Si  Si38  1  0.69340000  0.19360000  0.79140000  1
  Si  Si39  1  0.19340000  0.69360000  0.79140000  1
