# generated using pymatgen
data_O2
_symmetry_space_group_name_H-M   'P 1'
_cell_length_a   21.11900000
_cell_length_b   12.97100000
_cell_length_c   9.67200000
_cell_angle_alpha   90.00000000
_cell_angle_beta   108.36700000
_cell_angle_gamma   90.00000000
_symmetry_Int_Tables_number   1
_chemical_formula_structural   O2
_chemical_formula_sum   O80
_cell_volume   2514.52347182
_cell_formula_units_Z   40
loop_
 _symmetry_equiv_pos_site_id
 _symmetry_equiv_pos_as_xyz
  1  'x, y, z'
loop_
 _atom_site_type_symbol
 _atom_site_label
 _atom_site_symmetry_multiplicity
 _atom_site_fract_x
 _atom_site_fract_y
 _atom_site_fract_z
 _atom_site_occupancy
  O  O0  1  0.66010000  0.13560000  0.18960000  1
  O  O1  1  0.16010000  0.63560000  0.18960000  1
  O  O2  1  0.33990000  0.13560000  0.81040000  1
  O  O3  1  0.83990000  0.63560000  0.81040000  1
  O  O4  1  0.33990000  0.86440000  0.81040000  1
  O  O5  1  0.83990000  0.36440000  0.81040000  1
  O  O6  1  0.66010000  0.86440000  0.18960000  1
  O  O7  1  0.16010000  0.36440000  0.18960000  1
  O  O8  1  0.73750000  0.00000000  0.11950000  1
  O  O9  1  0.23750000  0.50000000  0.11950000  1
  O  O10  1  0.26250000  0.00000000  0.88050000  1
  O  O11  1  0.76250000  0.50000000  0.88050000  1
  O  O12  1  0.77900000  0.19000000  0.18100000  1
  O  O13  1  0.27900000  0.69000000  0.18100000  1
  O  O14  1  0.22100000  0.19000000  0.81900000  1
  O  O15  1  0.72100000  0.69000000  0.81900000  1
  O  O16  1  0.22100000  0.81000000  0.81900000  1
  O  O17  1  0.72100000  0.31000000  0.81900000  1
  O  O18  1  0.77900000  0.81000000  0.18100000  1
  O  O19  1  0.27900000  0.31000000  0.18100000  1
  O  O20  1  0.68250000  0.14940000  0.93780000  1
  O  O21  1  0.18250000  0.64940000  0.93780000  1
  O  O22  1  0.31750000  0.14940000  0.06220000  1
  O  O23  1  0.81750000  0.64940000  0.06220000  1
  O  O24  1  0.31750000  0.85060000  0.06220000  1
  O  O25  1  0.81750000  0.35060000  0.06220000  1
  O  O26  1  0.68250000  0.85060000  0.93780000  1
  O  O27  1  0.18250000  0.35060000  0.93780000  1
  O  O28  1  0.84010000  0.20080000  0.65070000  1
  O  O29  1  0.34010000  0.70080000  0.65070000  1
  O  O30  1  0.15990000  0.20080000  0.34930000  1
  O  O31  1  0.65990000  0.70080000  0.34930000  1
  O  O32  1  0.15990000  0.79920000  0.34930000  1
  O  O33  1  0.65990000  0.29920000  0.34930000  1
  O  O34  1  0.84010000  0.79920000  0.65070000  1
  O  O35  1  0.34010000  0.29920000  0.65070000  1
  O  O36  1  0.74710000  0.12360000  0.74770000  1
  O  O37  1  0.24710000  0.62360000  0.74770000  1
  O  O38  1  0.25290000  0.12360000  0.25230000  1
  O  O39  1  0.75290000  0.62360000  0.25230000  1
  O  O40  1  0.25290000  0.87640000  0.25230000  1
  O  O41  1  0.75290000  0.37640000  0.25230000  1
  O  O42  1  0.74710000  0.87640000  0.74770000  1
  O  O43  1  0.24710000  0.37640000  0.74770000  1
  O  O44  1  0.81280000  0.00000000  0.62770000  1
  O  O45  1  0.31280000  0.50000000  0.62770000  1
  O  O46  1  0.18720000  0.00000000  0.37230000  1
  O  O47  1  0.68720000  0.50000000  0.37230000  1
  O  O48  1  0.72840000  0.13410000  0.46620000  1
  O  O49  1  0.22840000  0.63410000  0.46620000  1
  O  O50  1  0.27160000  0.13410000  0.53380000  1
  O  O51  1  0.77160000  0.63410000  0.53380000  1
  O  O52  1  0.27160000  0.86590000  0.53380000  1
  O  O53  1  0.77160000  0.36590000  0.53380000  1
  O  O54  1  0.72840000  0.86590000  0.46620000  1
  O  O55  1  0.22840000  0.36590000  0.46620000  1
  O  O56  1  0.59780000  0.86890000  0.38880000  1
  O  O57  1  0.09780000  0.36890000  0.38880000  1
  O  O58  1  0.40220000  0.86890000  0.61120000  1
  O  O59  1  0.90220000  0.36890000  0.61120000  1
  O  O60  1  0.40220000  0.13110000  0.61120000  1
  O  O61  1  0.90220000  0.63110000  0.61120000  1
  O  O62  1  0.59780000  0.13110000  0.38880000  1
  O  O63  1  0.09780000  0.63110000  0.38880000  1
  O  O64  1  0.62370000  0.19030000  0.66080000  1
  O  O65  1  0.12370000  0.69030000  0.66080000  1
  O  O66  1  0.37630000  0.19030000  0.33920000  1
  O  O67  1  0.87630000  0.69030000  0.33920000  1
  O  O68  1  0.37630000  0.80970000  0.33920000  1
  O  O69  1  0.87630000  0.30970000  0.33920000  1
  O  O70  1  0.62370000  0.80970000  0.66080000  1
  O  O71  1  0.12370000  0.30970000  0.66080000  1
  O  O72  1  0.50000000  0.15420000  0.50000000  1
  O  O73  1  0.00000000  0.65420000  0.50000000  1
  O  O74  1  0.50000000  0.84580000  0.50000000  1
  O  O75  1  0.00000000  0.34580000  0.50000000  1
  O  O76  1  0.58430000  0.00000000  0.58520000  1
  O  O77  1  0.08430000  0.50000000  0.58520000  1
  O  O78  1  0.41570000  0.00000000  0.41480000  1
  O  O79  1  0.91570000  0.50000000  0.41480000  1
