# generated using pymatgen
data_SiO4
_symmetry_space_group_name_H-M   'P 1'
_cell_length_a   14.91900000
_cell_length_b   14.91900000
_cell_length_c   14.91900000
_cell_angle_alpha   90.00000000
_cell_angle_beta   90.00000000
_cell_angle_gamma   90.00000000
_symmetry_Int_Tables_number   1
_chemical_formula_structural   SiO4
_chemical_formula_sum   'Si1 O4'
_cell_volume   3320.61971356
_cell_formula_units_Z   1
loop_
 _symmetry_equiv_pos_site_id
 _symmetry_equiv_pos_as_xyz
  1  'x, y, z'
loop_
 _atom_site_type_symbol
 _atom_site_label
 _atom_site_symmetry_multiplicity
 _atom_site_fract_x
 _atom_site_fract_y
 _atom_site_fract_z
 _atom_site_occupancy
  Si  Si0  1  0.10370000  0.39630000  0.25000000  1
  O  O1  1  0.12980000  0.33440000  0.33440000  1
  O  O2  1  0.16560000  0.37020000  0.16560000  1
  O  O3  1  0.11930000  0.50000000  0.27540000  1
  O  O4  1  0.00000000  0.38070000  0.22460000  1
