# generated using pymatgen
data_Si
_symmetry_space_group_name_H-M   'P 1'
_cell_length_a   19.01800000
_cell_length_b   14.30300000
_cell_length_c   7.54100000
_cell_angle_alpha   90.00000000
_cell_angle_beta   90.00000000
_cell_angle_gamma   90.00000000
_symmetry_Int_Tables_number   1
_chemical_formula_structural   Si
_chemical_formula_sum   Si36
_cell_volume   2051.26099761
_cell_formula_units_Z   36
loop_
 _symmetry_equiv_pos_site_id
 _symmetry_equiv_pos_as_xyz
  1  'x, y, z'
loop_
 _atom_site_type_symbol
 _atom_site_label
 _atom_site_symmetry_multiplicity
 _atom_site_fract_x
 _atom_site_fract_y
 _atom_site_fract_z
 _atom_site_occupancy
  Si  Si0  1  0.32440000  0.20180000  0.20640000  1
  Si  Si1  1  0.82440000  0.70180000  0.70640000  1
  Si  Si2  1  0.67560000  0.20180000  0.20640000  1
  Si  Si3  1  0.17560000  0.70180000  0.70640000  1
  Si  Si4  1  0.32440000  0.79820000  0.20640000  1
  Si  Si5  1  0.82440000  0.29820000  0.70640000  1
  Si  Si6  1  0.67560000  0.79820000  0.20640000  1
  Si  Si7  1  0.17560000  0.29820000  0.70640000  1
  Si  Si8  1  0.67560000  0.79820000  0.79360000  1
  Si  Si9  1  0.17560000  0.29820000  0.29360000  1
  Si  Si10  1  0.32440000  0.79820000  0.79360000  1
  Si  Si11  1  0.82440000  0.29820000  0.29360000  1
  Si  Si12  1  0.67560000  0.20180000  0.79360000  1
  Si  Si13  1  0.17560000  0.70180000  0.29360000  1
  Si  Si14  1  0.32440000  0.20180000  0.79360000  1
  Si  Si15  1  0.82440000  0.70180000  0.29360000  1
  Si  Si16  1  0.08430000  0.20040000  0.00000000  1
  Si  Si17  1  0.58430000  0.70040000  0.50000000  1
  Si  Si18  1  0.91570000  0.20040000  0.00000000  1
  Si  Si19  1  0.41570000  0.70040000  0.50000000  1
  Si  Si20  1  0.08430000  0.79960000  0.00000000  1
  Si  Si21  1  0.58430000  0.29960000  0.50000000  1
  Si  Si22  1  0.91570000  0.79960000  0.00000000  1
  Si  Si23  1  0.41570000  0.29960000  0.50000000  1
  Si  Si24  1  0.27430000  0.00000000  0.29350000  1
  Si  Si25  1  0.77430000  0.50000000  0.79350000  1
  Si  Si26  1  0.72570000  0.00000000  0.29350000  1
  Si  Si27  1  0.22570000  0.50000000  0.79350000  1
  Si  Si28  1  0.72570000  0.00000000  0.70650000  1
  Si  Si29  1  0.22570000  0.50000000  0.20650000  1
  Si  Si30  1  0.27430000  0.00000000  0.70650000  1
  Si  Si31  1  0.77430000  0.50000000  0.20650000  1
  Si  Si32  1  0.15530000  0.00000000  0.00000000  1
  Si  Si33  1  0.65530000  0.50000000  0.50000000  1
  Si  Si34  1  0.84470000  0.00000000  0.00000000  1
  Si  Si35  1  0.34470000  0.50000000  0.50000000  1
