# generated using pymatgen
data_SiO4
_symmetry_space_group_name_H-M   'P 1'
_cell_length_a   19.01800000
_cell_length_b   14.30300000
_cell_length_c   7.54100000
_cell_angle_alpha   90.00000000
_cell_angle_beta   90.00000000
_cell_angle_gamma   90.00000000
_symmetry_Int_Tables_number   1
_chemical_formula_structural   SiO4
_chemical_formula_sum   'Si1 O4'
_cell_volume   2051.26099761
_cell_formula_units_Z   1
loop_
 _symmetry_equiv_pos_site_id
 _symmetry_equiv_pos_as_xyz
  1  'x, y, z'
loop_
 _atom_site_type_symbol
 _atom_site_label
 _atom_site_symmetry_multiplicity
 _atom_site_fract_x
 _atom_site_fract_y
 _atom_site_fract_z
 _atom_site_occupancy
  Si  Si0  1  0.17560000  0.29820000  0.29360000  1
  O  O1  1  0.17990000  0.40820000  0.24990000  1
  O  O2  1  0.11520000  0.25070000  0.17430000  1
  O  O3  1  0.15710000  0.28380000  0.50000000  1
  O  O4  1  0.25000000  0.25000000  0.25000000  1
