# generated using pymatgen
data_O2
_symmetry_space_group_name_H-M   'P 1'
_cell_length_a   20.40800000
_cell_length_b   13.30400000
_cell_length_c   20.16600000
_cell_angle_alpha   90.00000000
_cell_angle_beta   102.33300000
_cell_angle_gamma   90.00000000
_symmetry_Int_Tables_number   1
_chemical_formula_structural   O2
_chemical_formula_sum   O192
_cell_volume   5348.87751148
_cell_formula_units_Z   96
loop_
 _symmetry_equiv_pos_site_id
 _symmetry_equiv_pos_as_xyz
  1  'x, y, z'
loop_
 _atom_site_type_symbol
 _atom_site_label
 _atom_site_symmetry_multiplicity
 _atom_site_fract_x
 _atom_site_fract_y
 _atom_site_fract_z
 _atom_site_occupancy
  O  O0  1  0.12230000  0.33440000  0.07350000  1
  O  O1  1  0.62230000  0.83440000  0.07350000  1
  O  O2  1  0.12230000  0.66560000  0.57350000  1
  O  O3  1  0.62230000  0.16560000  0.57350000  1
  O  O4  1  0.10670000  0.52960000  0.08230000  1
  O  O5  1  0.60670000  0.02960000  0.08230000  1
  O  O6  1  0.10670000  0.47040000  0.58230000  1
  O  O7  1  0.60670000  0.97040000  0.58230000  1
  O  O8  1  0.00820000  0.41870000  0.01410000  1
  O  O9  1  0.50820000  0.91870000  0.01410000  1
  O  O10  1  0.00820000  0.58130000  0.51410000  1
  O  O11  1  0.50820000  0.08130000  0.51410000  1
  O  O12  1  0.11690000  0.45010000  0.96650000  1
  O  O13  1  0.61690000  0.95010000  0.96650000  1
  O  O14  1  0.11690000  0.54990000  0.46650000  1
  O  O15  1  0.61690000  0.04990000  0.46650000  1
  O  O16  1  0.25450000  0.33160000  0.10060000  1
  O  O17  1  0.75450000  0.83160000  0.10060000  1
  O  O18  1  0.25450000  0.66840000  0.60060000  1
  O  O19  1  0.75450000  0.16840000  0.60060000  1
  O  O20  1  0.18630000  0.16300000  0.09440000  1
  O  O21  1  0.68630000  0.66300000  0.09440000  1
  O  O22  1  0.18630000  0.83700000  0.59440000  1
  O  O23  1  0.68630000  0.33700000  0.59440000  1
  O  O24  1  0.18990000  0.28920000  0.19600000  1
  O  O25  1  0.68990000  0.78920000  0.19600000  1
  O  O26  1  0.18990000  0.71080000  0.69600000  1
  O  O27  1  0.68990000  0.21080000  0.69600000  1
  O  O28  1  0.38120000  0.36520000  0.10170000  1
  O  O29  1  0.88120000  0.86520000  0.10170000  1
  O  O30  1  0.38120000  0.63480000  0.60170000  1
  O  O31  1  0.88120000  0.13480000  0.60170000  1
  O  O32  1  0.28690000  0.45770000  0.01340000  1
  O  O33  1  0.78690000  0.95770000  0.01340000  1
  O  O34  1  0.28690000  0.54230000  0.51340000  1
  O  O35  1  0.78690000  0.04230000  0.51340000  1
  O  O36  1  0.30930000  0.50630000  0.14310000  1
  O  O37  1  0.80930000  0.00630000  0.14310000  1
  O  O38  1  0.30930000  0.49370000  0.64310000  1
  O  O39  1  0.80930000  0.99370000  0.64310000  1
  O  O40  1  0.42970000  0.18070000  0.11610000  1
  O  O41  1  0.92970000  0.68070000  0.11610000  1
  O  O42  1  0.42970000  0.81930000  0.61610000  1
  O  O43  1  0.92970000  0.31930000  0.61610000  1
  O  O44  1  0.50650000  0.33333333  0.16520000  1
  O  O45  1  0.00650000  0.83333333  0.16520000  1
  O  O46  1  0.50650000  0.66666667  0.66520000  1
  O  O47  1  0.00650000  0.16666667  0.66520000  1
  O  O48  1  0.40740000  0.27870000  0.22180000  1
  O  O49  1  0.90740000  0.77870000  0.22180000  1
  O  O50  1  0.40740000  0.72130000  0.72180000  1
  O  O51  1  0.90740000  0.22130000  0.72180000  1
  O  O52  1  0.30750000  0.10910000  0.08500000  1
  O  O53  1  0.80750000  0.60910000  0.08500000  1
  O  O54  1  0.30750000  0.89090000  0.58500000  1
  O  O55  1  0.80750000  0.39090000  0.58500000  1
  O  O56  1  0.39880000  0.01480000  0.17430000  1
  O  O57  1  0.89880000  0.51480000  0.17430000  1
  O  O58  1  0.39880000  0.98520000  0.67430000  1
  O  O59  1  0.89880000  0.48520000  0.67430000  1
  O  O60  1  0.40540000  0.01350000  0.04540000  1
  O  O61  1  0.90540000  0.51350000  0.04540000  1
  O  O62  1  0.40540000  0.98650000  0.54540000  1
  O  O63  1  0.90540000  0.48650000  0.54540000  1
  O  O64  1  0.20460000  0.04570000  0.99410000  1
  O  O65  1  0.70460000  0.54570000  0.99410000  1
  O  O66  1  0.20460000  0.95430000  0.49410000  1
  O  O67  1  0.70460000  0.45430000  0.49410000  1
  O  O68  1  0.22490000  0.97610000  0.11910000  1
  O  O69  1  0.72490000  0.47610000  0.11910000  1
  O  O70  1  0.22490000  0.02390000  0.61910000  1
  O  O71  1  0.72490000  0.52390000  0.61910000  1
  O  O72  1  0.63130000  0.36370000  0.15400000  1
  O  O73  1  0.13130000  0.86370000  0.15400000  1
  O  O74  1  0.63130000  0.63630000  0.65400000  1
  O  O75  1  0.13130000  0.13630000  0.65400000  1
  O  O76  1  0.60670000  0.29100000  0.26740000  1
  O  O77  1  0.10670000  0.79100000  0.26740000  1
  O  O78  1  0.60670000  0.70900000  0.76740000  1
  O  O79  1  0.10670000  0.20900000  0.76740000  1
  O  O80  1  0.58530000  0.17910000  0.15850000  1
  O  O81  1  0.08530000  0.67910000  0.15850000  1
  O  O82  1  0.58530000  0.82090000  0.65850000  1
  O  O83  1  0.08530000  0.32090000  0.65850000  1
  O  O84  1  0.75810000  0.32530000  0.20310000  1
  O  O85  1  0.25810000  0.82530000  0.20310000  1
  O  O86  1  0.75810000  0.67470000  0.70310000  1
  O  O87  1  0.25810000  0.17470000  0.70310000  1
  O  O88  1  0.70210000  0.48580000  0.24340000  1
  O  O89  1  0.20210000  0.98580000  0.24340000  1
  O  O90  1  0.70210000  0.51420000  0.74340000  1
  O  O91  1  0.20210000  0.01420000  0.74340000  1
  O  O92  1  0.83080000  0.16230000  0.22620000  1
  O  O93  1  0.33080000  0.66230000  0.22620000  1
  O  O94  1  0.83080000  0.83770000  0.72620000  1
  O  O95  1  0.33080000  0.33770000  0.72620000  1
  O  O96  1  0.88950000  0.33970000  0.23230000  1
  O  O97  1  0.38950000  0.83970000  0.23230000  1
  O  O98  1  0.88950000  0.66030000  0.73230000  1
  O  O99  1  0.38950000  0.16030000  0.73230000  1
  O  O100  1  0.82500000  0.28690000  0.32670000  1
  O  O101  1  0.32500000  0.78690000  0.32670000  1
  O  O102  1  0.82500000  0.71310000  0.82670000  1
  O  O103  1  0.32500000  0.21310000  0.82670000  1
  O  O104  1  0.70780000  0.10870000  0.16950000  1
  O  O105  1  0.20780000  0.60870000  0.16950000  1
  O  O106  1  0.70780000  0.89130000  0.66950000  1
  O  O107  1  0.20780000  0.39130000  0.66950000  1
  O  O108  1  0.78020000  0.99620000  0.26420000  1
  O  O109  1  0.28020000  0.49620000  0.26420000  1
  O  O110  1  0.78020000  0.00380000  0.76420000  1
  O  O111  1  0.28020000  0.50380000  0.76420000  1
  O  O112  1  0.61760000  0.00090000  0.21330000  1
  O  O113  1  0.11760000  0.50090000  0.21330000  1
  O  O114  1  0.61760000  0.99910000  0.71330000  1
  O  O115  1  0.11760000  0.49910000  0.71330000  1
  O  O116  1  0.92260000  0.50160000  0.30700000  1
  O  O117  1  0.42260000  0.00160000  0.30700000  1
  O  O118  1  0.92260000  0.49840000  0.80700000  1
  O  O119  1  0.42260000  0.99840000  0.80700000  1
  O  O120  1  0.00740000  0.42270000  0.23940000  1
  O  O121  1  0.50740000  0.92270000  0.23940000  1
  O  O122  1  0.00740000  0.57730000  0.73940000  1
  O  O123  1  0.50740000  0.07730000  0.73940000  1
  O  O124  1  0.88680000  0.55240000  0.41990000  1
  O  O125  1  0.38680000  0.05240000  0.41990000  1
  O  O126  1  0.88680000  0.44760000  0.91990000  1
  O  O127  1  0.38680000  0.94760000  0.91990000  1
  O  O128  1  0.88160000  0.34950000  0.44930000  1
  O  O129  1  0.38160000  0.84950000  0.44930000  1
  O  O130  1  0.88160000  0.65050000  0.94930000  1
  O  O131  1  0.38160000  0.15050000  0.94930000  1
  O  O132  1  0.75080000  0.32550000  0.41590000  1
  O  O133  1  0.25080000  0.82550000  0.41590000  1
  O  O134  1  0.75080000  0.67450000  0.91590000  1
  O  O135  1  0.25080000  0.17450000  0.91590000  1
  O  O136  1  0.82990000  0.16790000  0.43150000  1
  O  O137  1  0.32990000  0.66790000  0.43150000  1
  O  O138  1  0.82990000  0.83210000  0.93150000  1
  O  O139  1  0.32990000  0.33210000  0.93150000  1
  O  O140  1  0.62680000  0.39210000  0.38130000  1
  O  O141  1  0.12680000  0.89210000  0.38130000  1
  O  O142  1  0.62680000  0.60790000  0.88130000  1
  O  O143  1  0.12680000  0.10790000  0.88130000  1
  O  O144  1  0.72790000  0.51230000  0.37610000  1
  O  O145  1  0.22790000  0.01230000  0.37610000  1
  O  O146  1  0.72790000  0.48770000  0.87610000  1
  O  O147  1  0.22790000  0.98770000  0.87610000  1
  O  O148  1  0.59520000  0.20050000  0.38050000  1
  O  O149  1  0.09520000  0.70050000  0.38050000  1
  O  O150  1  0.59520000  0.79950000  0.88050000  1
  O  O151  1  0.09520000  0.29950000  0.88050000  1
  O  O152  1  0.50490000  0.33280000  0.32330000  1
  O  O153  1  0.00490000  0.83280000  0.32330000  1
  O  O154  1  0.50490000  0.66720000  0.82330000  1
  O  O155  1  0.00490000  0.16720000  0.82330000  1
  O  O156  1  0.70760000  0.09690000  0.39740000  1
  O  O157  1  0.20760000  0.59690000  0.39740000  1
  O  O158  1  0.70760000  0.90310000  0.89740000  1
  O  O159  1  0.20760000  0.40310000  0.89740000  1
  O  O160  1  0.59320000  0.01460000  0.33570000  1
  O  O161  1  0.09320000  0.51460000  0.33570000  1
  O  O162  1  0.59320000  0.98540000  0.83570000  1
  O  O163  1  0.09320000  0.48540000  0.83570000  1
  O  O164  1  0.80990000  0.97780000  0.39740000  1
  O  O165  1  0.30990000  0.47780000  0.39740000  1
  O  O166  1  0.80990000  0.02220000  0.89740000  1
  O  O167  1  0.30990000  0.52220000  0.89740000  1
  O  O168  1  0.38070000  0.38100000  0.32390000  1
  O  O169  1  0.88070000  0.88100000  0.32390000  1
  O  O170  1  0.38070000  0.61900000  0.82390000  1
  O  O171  1  0.88070000  0.11900000  0.82390000  1
  O  O172  1  0.41960000  0.19220000  0.34110000  1
  O  O173  1  0.91960000  0.69220000  0.34110000  1
  O  O174  1  0.41960000  0.80780000  0.84110000  1
  O  O175  1  0.91960000  0.30780000  0.84110000  1
  O  O176  1  0.25610000  0.32670000  0.32050000  1
  O  O177  1  0.75610000  0.82670000  0.32050000  1
  O  O178  1  0.25610000  0.67330000  0.82050000  1
  O  O179  1  0.75610000  0.17330000  0.82050000  1
  O  O180  1  0.18450000  0.16260000  0.29450000  1
  O  O181  1  0.68450000  0.66260000  0.29450000  1
  O  O182  1  0.18450000  0.83740000  0.79450000  1
  O  O183  1  0.68450000  0.33740000  0.79450000  1
  O  O184  1  0.12450000  0.33990000  0.28970000  1
  O  O185  1  0.62450000  0.83990000  0.28970000  1
  O  O186  1  0.12450000  0.66010000  0.78970000  1
  O  O187  1  0.62450000  0.16010000  0.78970000  1
  O  O188  1  0.30670000  0.09210000  0.30270000  1
  O  O189  1  0.80670000  0.59210000  0.30270000  1
  O  O190  1  0.30670000  0.90790000  0.80270000  1
  O  O191  1  0.80670000  0.40790000  0.80270000  1
