# generated using pymatgen
data_Si
_symmetry_space_group_name_H-M   'P 1'
_cell_length_a   20.40800000
_cell_length_b   13.30400000
_cell_length_c   20.16600000
_cell_angle_alpha   90.00000000
_cell_angle_beta   102.33300000
_cell_angle_gamma   90.00000000
_symmetry_Int_Tables_number   1
_chemical_formula_structural   Si
_chemical_formula_sum   Si92
_cell_volume   5348.87751148
_cell_formula_units_Z   92
loop_
 _symmetry_equiv_pos_site_id
 _symmetry_equiv_pos_as_xyz
  1  'x, y, z'
loop_
 _atom_site_type_symbol
 _atom_site_label
 _atom_site_symmetry_multiplicity
 _atom_site_fract_x
 _atom_site_fract_y
 _atom_site_fract_z
 _atom_site_occupancy
  Si  Si0  1  0.08830000  0.43280000  0.03410000  1
  Si  Si1  1  0.58830000  0.93280000  0.03410000  1
  Si  Si2  1  0.08830000  0.56720000  0.53410000  1
  Si  Si3  1  0.58830000  0.06720000  0.53410000  1
  Si  Si4  1  0.18830000  0.27960000  0.11620000  1
  Si  Si5  1  0.68830000  0.77960000  0.11620000  1
  Si  Si6  1  0.18830000  0.72040000  0.61620000  1
  Si  Si7  1  0.68830000  0.22040000  0.61620000  1
  Si  Si8  1  0.30790000  0.41580000  0.09000000  1
  Si  Si9  1  0.80790000  0.91580000  0.09000000  1
  Si  Si10  1  0.30790000  0.58420000  0.59000000  1
  Si  Si11  1  0.80790000  0.08420000  0.59000000  1
  Si  Si12  1  0.43110000  0.28980000  0.15090000  1
  Si  Si13  1  0.93110000  0.78980000  0.15090000  1
  Si  Si14  1  0.43110000  0.71020000  0.65090000  1
  Si  Si15  1  0.93110000  0.21020000  0.65090000  1
  Si  Si16  1  0.38570000  0.07920000  0.10530000  1
  Si  Si17  1  0.88570000  0.57920000  0.10530000  1
  Si  Si18  1  0.38570000  0.92080000  0.60530000  1
  Si  Si19  1  0.88570000  0.42080000  0.60530000  1
  Si  Si20  1  0.23060000  0.07320000  0.07310000  1
  Si  Si21  1  0.73060000  0.57320000  0.07310000  1
  Si  Si22  1  0.23060000  0.92680000  0.57310000  1
  Si  Si23  1  0.73060000  0.42680000  0.57310000  1
  Si  Si24  1  0.58230000  0.29220000  0.18600000  1
  Si  Si25  1  0.08230000  0.79220000  0.18600000  1
  Si  Si26  1  0.58230000  0.70780000  0.68600000  1
  Si  Si27  1  0.08230000  0.20780000  0.68600000  1
  Si  Si28  1  0.70420000  0.41370000  0.17980000  1
  Si  Si29  1  0.20420000  0.91370000  0.17980000  1
  Si  Si30  1  0.70420000  0.58630000  0.67980000  1
  Si  Si31  1  0.20420000  0.08630000  0.67980000  1
  Si  Si32  1  0.82620000  0.27840000  0.24740000  1
  Si  Si33  1  0.32620000  0.77840000  0.24740000  1
  Si  Si34  1  0.82620000  0.72160000  0.74740000  1
  Si  Si35  1  0.32620000  0.22160000  0.74740000  1
  Si  Si36  1  0.78240000  0.06820000  0.20050000  1
  Si  Si37  1  0.28240000  0.56820000  0.20050000  1
  Si  Si38  1  0.78240000  0.93180000  0.70050000  1
  Si  Si39  1  0.28240000  0.43180000  0.70050000  1
  Si  Si40  1  0.62950000  0.07950000  0.15640000  1
  Si  Si41  1  0.12950000  0.57950000  0.15640000  1
  Si  Si42  1  0.62950000  0.92050000  0.65640000  1
  Si  Si43  1  0.12950000  0.42050000  0.65640000  1
  Si  Si44  1  0.92960000  0.44460000  0.23840000  1
  Si  Si45  1  0.42960000  0.94460000  0.23840000  1
  Si  Si46  1  0.92960000  0.55540000  0.73840000  1
  Si  Si47  1  0.42960000  0.05540000  0.73840000  1
  Si  Si48  1  0.82180000  0.28270000  0.40560000  1
  Si  Si49  1  0.32180000  0.78270000  0.40560000  1
  Si  Si50  1  0.82180000  0.71730000  0.90560000  1
  Si  Si51  1  0.32180000  0.21730000  0.90560000  1
  Si  Si52  1  0.70280000  0.42120000  0.41700000  1
  Si  Si53  1  0.20280000  0.92120000  0.41700000  1
  Si  Si54  1  0.70280000  0.57880000  0.91700000  1
  Si  Si55  1  0.20280000  0.07880000  0.91700000  1
  Si  Si56  1  0.58330000  0.30380000  0.33820000  1
  Si  Si57  1  0.08330000  0.80380000  0.33820000  1
  Si  Si58  1  0.58330000  0.69620000  0.83820000  1
  Si  Si59  1  0.08330000  0.19620000  0.83820000  1
  Si  Si60  1  0.62830000  0.09070000  0.39470000  1
  Si  Si61  1  0.12830000  0.59070000  0.39470000  1
  Si  Si62  1  0.62830000  0.90930000  0.89470000  1
  Si  Si63  1  0.12830000  0.40930000  0.89470000  1
  Si  Si64  1  0.78350000  0.07110000  0.43520000  1
  Si  Si65  1  0.28350000  0.57110000  0.43520000  1
  Si  Si66  1  0.78350000  0.92890000  0.93520000  1
  Si  Si67  1  0.28350000  0.42890000  0.93520000  1
  Si  Si68  1  0.42820000  0.29570000  0.30260000  1
  Si  Si69  1  0.92820000  0.79570000  0.30260000  1
  Si  Si70  1  0.42820000  0.70430000  0.80260000  1
  Si  Si71  1  0.92820000  0.20430000  0.80260000  1
  Si  Si72  1  0.30670000  0.42060000  0.32640000  1
  Si  Si73  1  0.80670000  0.92060000  0.32640000  1
  Si  Si74  1  0.30670000  0.57940000  0.82640000  1
  Si  Si75  1  0.80670000  0.07940000  0.82640000  1
  Si  Si76  1  0.18850000  0.27960000  0.27520000  1
  Si  Si77  1  0.68850000  0.77960000  0.27520000  1
  Si  Si78  1  0.18850000  0.72040000  0.77520000  1
  Si  Si79  1  0.68850000  0.22040000  0.77520000  1
  Si  Si80  1  0.23040000  0.06300000  0.30420000  1
  Si  Si81  1  0.73040000  0.56300000  0.30420000  1
  Si  Si82  1  0.23040000  0.93700000  0.80420000  1
  Si  Si83  1  0.73040000  0.43700000  0.80420000  1
  Si  Si84  1  0.38390000  0.08450000  0.34240000  1
  Si  Si85  1  0.88390000  0.58450000  0.34240000  1
  Si  Si86  1  0.38390000  0.91550000  0.84240000  1
  Si  Si87  1  0.88390000  0.41550000  0.84240000  1
  Si  Si88  1  0.08570000  0.44450000  0.26950000  1
  Si  Si89  1  0.58570000  0.94450000  0.26950000  1
  Si  Si90  1  0.08570000  0.55550000  0.76950000  1
  Si  Si91  1  0.58570000  0.05550000  0.76950000  1
