# generated using pymatgen
data_SiO4
_symmetry_space_group_name_H-M   'P 1'
_cell_length_a   20.40800000
_cell_length_b   13.30400000
_cell_length_c   20.16600000
_cell_angle_alpha   90.00000000
_cell_angle_beta   102.33300000
_cell_angle_gamma   90.00000000
_symmetry_Int_Tables_number   1
_chemical_formula_structural   SiO4
_chemical_formula_sum   'Si1 O4'
_cell_volume   5348.87751148
_cell_formula_units_Z   1
loop_
 _symmetry_equiv_pos_site_id
 _symmetry_equiv_pos_as_xyz
  1  'x, y, z'
loop_
 _atom_site_type_symbol
 _atom_site_label
 _atom_site_symmetry_multiplicity
 _atom_site_fract_x
 _atom_site_fract_y
 _atom_site_fract_z
 _atom_site_occupancy
  Si  Si0  1  0.12950000  0.42050000  0.65640000  1
  O  O1  1  0.10670000  0.47040000  0.58230000  1
  O  O2  1  0.08530000  0.32090000  0.65850000  1
  O  O3  1  0.20780000  0.39130000  0.66950000  1
  O  O4  1  0.11760000  0.49910000  0.71330000  1
