# generated using pymatgen
data_SiO4
_symmetry_space_group_name_H-M   'P 1'
_cell_length_a   20.40800000
_cell_length_b   13.30400000
_cell_length_c   20.16600000
_cell_angle_alpha   90.00000000
_cell_angle_beta   102.33300000
_cell_angle_gamma   90.00000000
_symmetry_Int_Tables_number   1
_chemical_formula_structural   SiO4
_chemical_formula_sum   'Si1 O4'
_cell_volume   5348.87751148
_cell_formula_units_Z   1
loop_
 _symmetry_equiv_pos_site_id
 _symmetry_equiv_pos_as_xyz
  1  'x, y, z'
loop_
 _atom_site_type_symbol
 _atom_site_label
 _atom_site_symmetry_multiplicity
 _atom_site_fract_x
 _atom_site_fract_y
 _atom_site_fract_z
 _atom_site_occupancy
  Si  Si0  1  0.28350000  0.42890000  0.93520000  1
  O  O1  1  0.28690000  0.45770000  1.01340000  1
  O  O2  1  0.32990000  0.33210000  0.93150000  1
  O  O3  1  0.20760000  0.40310000  0.89740000  1
  O  O4  1  0.30990000  0.52220000  0.89740000  1
