# generated using pymatgen
data_SiO4
_symmetry_space_group_name_H-M   'P 1'
_cell_length_a   18.53400000
_cell_length_b   18.53400000
_cell_length_c   27.13400000
_cell_angle_alpha   90.00000000
_cell_angle_beta   90.00000000
_cell_angle_gamma   90.00000000
_symmetry_Int_Tables_number   1
_chemical_formula_structural   SiO4
_chemical_formula_sum   'Si1 O4'
_cell_volume   9320.77743890
_cell_formula_units_Z   1
loop_
 _symmetry_equiv_pos_site_id
 _symmetry_equiv_pos_as_xyz
  1  'x, y, z'
loop_
 _atom_site_type_symbol
 _atom_site_label
 _atom_site_symmetry_multiplicity
 _atom_site_fract_x
 _atom_site_fract_y
 _atom_site_fract_z
 _atom_site_occupancy
  Si  Si0  1  0.41650000  0.20420000  0.14720000  1
  O  O1  1  0.39760000  0.26820000  0.18510000  1
  O  O2  1  0.40210000  0.23120000  0.09170000  1
  O  O3  1  0.50000000  0.18190000  0.15320000  1
  O  O4  1  0.36650000  0.13530000  0.15900000  1
