# generated using pymatgen
data_O2
_symmetry_space_group_name_H-M   'P 1'
_cell_length_a   18.53400000
_cell_length_b   18.53400000
_cell_length_c   27.13400000
_cell_angle_alpha   90.00000000
_cell_angle_beta   90.00000000
_cell_angle_gamma   90.00000000
_symmetry_Int_Tables_number   1
_chemical_formula_structural   O2
_chemical_formula_sum   O256
_cell_volume   9320.77743890
_cell_formula_units_Z   128
loop_
 _symmetry_equiv_pos_site_id
 _symmetry_equiv_pos_as_xyz
  1  'x, y, z'
loop_
 _atom_site_type_symbol
 _atom_site_label
 _atom_site_symmetry_multiplicity
 _atom_site_fract_x
 _atom_site_fract_y
 _atom_site_fract_z
 _atom_site_occupancy
  O  O0  1  0.26820000  0.60240000  0.18510000  1
  O  O1  1  0.76820000  0.10240000  0.68510000  1
  O  O2  1  0.39760000  0.26820000  0.18510000  1
  O  O3  1  0.89760000  0.76820000  0.68510000  1
  O  O4  1  0.73180000  0.39760000  0.18510000  1
  O  O5  1  0.23180000  0.89760000  0.68510000  1
  O  O6  1  0.60240000  0.73180000  0.18510000  1
  O  O7  1  0.10240000  0.23180000  0.68510000  1
  O  O8  1  0.73180000  0.60240000  0.18510000  1
  O  O9  1  0.23180000  0.10240000  0.68510000  1
  O  O10  1  0.60240000  0.26820000  0.18510000  1
  O  O11  1  0.10240000  0.76820000  0.68510000  1
  O  O12  1  0.26820000  0.39760000  0.18510000  1
  O  O13  1  0.76820000  0.89760000  0.68510000  1
  O  O14  1  0.39760000  0.73180000  0.18510000  1
  O  O15  1  0.89760000  0.23180000  0.68510000  1
  O  O16  1  0.73180000  0.39760000  0.81490000  1
  O  O17  1  0.23180000  0.89760000  0.31490000  1
  O  O18  1  0.60240000  0.73180000  0.81490000  1
  O  O19  1  0.10240000  0.23180000  0.31490000  1
  O  O20  1  0.26820000  0.60240000  0.81490000  1
  O  O21  1  0.76820000  0.10240000  0.31490000  1
  O  O22  1  0.39760000  0.26820000  0.81490000  1
  O  O23  1  0.89760000  0.76820000  0.31490000  1
  O  O24  1  0.26820000  0.39760000  0.81490000  1
  O  O25  1  0.76820000  0.89760000  0.31490000  1
  O  O26  1  0.39760000  0.73180000  0.81490000  1
  O  O27  1  0.89760000  0.23180000  0.31490000  1
  O  O28  1  0.73180000  0.60240000  0.81490000  1
  O  O29  1  0.23180000  0.10240000  0.31490000  1
  O  O30  1  0.60240000  0.26820000  0.81490000  1
  O  O31  1  0.10240000  0.76820000  0.31490000  1
  O  O32  1  0.23530000  0.59590000  0.27930000  1
  O  O33  1  0.73530000  0.09590000  0.77930000  1
  O  O34  1  0.40410000  0.23530000  0.27930000  1
  O  O35  1  0.90410000  0.73530000  0.77930000  1
  O  O36  1  0.76470000  0.40410000  0.27930000  1
  O  O37  1  0.26470000  0.90410000  0.77930000  1
  O  O38  1  0.59590000  0.76470000  0.27930000  1
  O  O39  1  0.09590000  0.26470000  0.77930000  1
  O  O40  1  0.76470000  0.59590000  0.27930000  1
  O  O41  1  0.26470000  0.09590000  0.77930000  1
  O  O42  1  0.59590000  0.23530000  0.27930000  1
  O  O43  1  0.09590000  0.73530000  0.77930000  1
  O  O44  1  0.23530000  0.40410000  0.27930000  1
  O  O45  1  0.73530000  0.90410000  0.77930000  1
  O  O46  1  0.40410000  0.76470000  0.27930000  1
  O  O47  1  0.90410000  0.26470000  0.77930000  1
  O  O48  1  0.76470000  0.40410000  0.72070000  1
  O  O49  1  0.26470000  0.90410000  0.22070000  1
  O  O50  1  0.59590000  0.76470000  0.72070000  1
  O  O51  1  0.09590000  0.26470000  0.22070000  1
  O  O52  1  0.23530000  0.59590000  0.72070000  1
  O  O53  1  0.73530000  0.09590000  0.22070000  1
  O  O54  1  0.40410000  0.23530000  0.72070000  1
  O  O55  1  0.90410000  0.73530000  0.22070000  1
  O  O56  1  0.23530000  0.40410000  0.72070000  1
  O  O57  1  0.73530000  0.90410000  0.22070000  1
  O  O58  1  0.40410000  0.76470000  0.72070000  1
  O  O59  1  0.90410000  0.26470000  0.22070000  1
  O  O60  1  0.76470000  0.59590000  0.72070000  1
  O  O61  1  0.26470000  0.09590000  0.22070000  1
  O  O62  1  0.59590000  0.23530000  0.72070000  1
  O  O63  1  0.09590000  0.73530000  0.22070000  1
  O  O64  1  0.32320000  0.50000000  0.24060000  1
  O  O65  1  0.82320000  0.00000000  0.74060000  1
  O  O66  1  0.50000000  0.32320000  0.24060000  1
  O  O67  1  0.00000000  0.82320000  0.74060000  1
  O  O68  1  0.67680000  0.50000000  0.24060000  1
  O  O69  1  0.17680000  0.00000000  0.74060000  1
  O  O70  1  0.50000000  0.67680000  0.24060000  1
  O  O71  1  0.00000000  0.17680000  0.74060000  1
  O  O72  1  0.67680000  0.50000000  0.75940000  1
  O  O73  1  0.17680000  0.00000000  0.25940000  1
  O  O74  1  0.50000000  0.67680000  0.75940000  1
  O  O75  1  0.00000000  0.17680000  0.25940000  1
  O  O76  1  0.32320000  0.50000000  0.75940000  1
  O  O77  1  0.82320000  0.00000000  0.25940000  1
  O  O78  1  0.50000000  0.32320000  0.75940000  1
  O  O79  1  0.00000000  0.82320000  0.25940000  1
  O  O80  1  0.36590000  0.63410000  0.25210000  1
  O  O81  1  0.86590000  0.13410000  0.75210000  1
  O  O82  1  0.36590000  0.36590000  0.25210000  1
  O  O83  1  0.86590000  0.86590000  0.75210000  1
  O  O84  1  0.63410000  0.36590000  0.25210000  1
  O  O85  1  0.13410000  0.86590000  0.75210000  1
  O  O86  1  0.63410000  0.63410000  0.25210000  1
  O  O87  1  0.13410000  0.13410000  0.75210000  1
  O  O88  1  0.63410000  0.36590000  0.74790000  1
  O  O89  1  0.13410000  0.86590000  0.24790000  1
  O  O90  1  0.63410000  0.63410000  0.74790000  1
  O  O91  1  0.13410000  0.13410000  0.24790000  1
  O  O92  1  0.36590000  0.63410000  0.74790000  1
  O  O93  1  0.86590000  0.13410000  0.24790000  1
  O  O94  1  0.36590000  0.36590000  0.74790000  1
  O  O95  1  0.86590000  0.86590000  0.24790000  1
  O  O96  1  0.09790000  0.26880000  0.40830000  1
  O  O97  1  0.59790000  0.76880000  0.90830000  1
  O  O98  1  0.73120000  0.09790000  0.40830000  1
  O  O99  1  0.23120000  0.59790000  0.90830000  1
  O  O100  1  0.90210000  0.73120000  0.40830000  1
  O  O101  1  0.40210000  0.23120000  0.90830000  1
  O  O102  1  0.26880000  0.90210000  0.40830000  1
  O  O103  1  0.76880000  0.40210000  0.90830000  1
  O  O104  1  0.90210000  0.26880000  0.40830000  1
  O  O105  1  0.40210000  0.76880000  0.90830000  1
  O  O106  1  0.26880000  0.09790000  0.40830000  1
  O  O107  1  0.76880000  0.59790000  0.90830000  1
  O  O108  1  0.09790000  0.73120000  0.40830000  1
  O  O109  1  0.59790000  0.23120000  0.90830000  1
  O  O110  1  0.73120000  0.90210000  0.40830000  1
  O  O111  1  0.23120000  0.40210000  0.90830000  1
  O  O112  1  0.90210000  0.73120000  0.59170000  1
  O  O113  1  0.40210000  0.23120000  0.09170000  1
  O  O114  1  0.26880000  0.90210000  0.59170000  1
  O  O115  1  0.76880000  0.40210000  0.09170000  1
  O  O116  1  0.09790000  0.26880000  0.59170000  1
  O  O117  1  0.59790000  0.76880000  0.09170000  1
  O  O118  1  0.73120000  0.09790000  0.59170000  1
  O  O119  1  0.23120000  0.59790000  0.09170000  1
  O  O120  1  0.09790000  0.73120000  0.59170000  1
  O  O121  1  0.59790000  0.23120000  0.09170000  1
  O  O122  1  0.73120000  0.90210000  0.59170000  1
  O  O123  1  0.23120000  0.40210000  0.09170000  1
  O  O124  1  0.90210000  0.26880000  0.59170000  1
  O  O125  1  0.40210000  0.76880000  0.09170000  1
  O  O126  1  0.26880000  0.09790000  0.59170000  1
  O  O127  1  0.76880000  0.59790000  0.09170000  1
  O  O128  1  0.13480000  0.13480000  0.42770000  1
  O  O129  1  0.63480000  0.63480000  0.92770000  1
  O  O130  1  0.86520000  0.13480000  0.42770000  1
  O  O131  1  0.36520000  0.63480000  0.92770000  1
  O  O132  1  0.86520000  0.86520000  0.42770000  1
  O  O133  1  0.36520000  0.36520000  0.92770000  1
  O  O134  1  0.13480000  0.86520000  0.42770000  1
  O  O135  1  0.63480000  0.36520000  0.92770000  1
  O  O136  1  0.86520000  0.86520000  0.57230000  1
  O  O137  1  0.36520000  0.36520000  0.07230000  1
  O  O138  1  0.13480000  0.86520000  0.57230000  1
  O  O139  1  0.63480000  0.36520000  0.07230000  1
  O  O140  1  0.13480000  0.13480000  0.57230000  1
  O  O141  1  0.63480000  0.63480000  0.07230000  1
  O  O142  1  0.86520000  0.13480000  0.57230000  1
  O  O143  1  0.36520000  0.63480000  0.07230000  1
  O  O144  1  0.00000000  0.17600000  0.43850000  1
  O  O145  1  0.50000000  0.67600000  0.93850000  1
  O  O146  1  0.82400000  0.00000000  0.43850000  1
  O  O147  1  0.32400000  0.50000000  0.93850000  1
  O  O148  1  0.00000000  0.82400000  0.43850000  1
  O  O149  1  0.50000000  0.32400000  0.93850000  1
  O  O150  1  0.17600000  0.00000000  0.43850000  1
  O  O151  1  0.67600000  0.50000000  0.93850000  1
  O  O152  1  0.00000000  0.82400000  0.56150000  1
  O  O153  1  0.50000000  0.32400000  0.06150000  1
  O  O154  1  0.17600000  0.00000000  0.56150000  1
  O  O155  1  0.67600000  0.50000000  0.06150000  1
  O  O156  1  0.00000000  0.17600000  0.56150000  1
  O  O157  1  0.50000000  0.67600000  0.06150000  1
  O  O158  1  0.82400000  0.00000000  0.56150000  1
  O  O159  1  0.32400000  0.50000000  0.06150000  1
  O  O160  1  0.09920000  0.22240000  0.50000000  1
  O  O161  1  0.59920000  0.72240000  0.00000000  1
  O  O162  1  0.77760000  0.09920000  0.50000000  1
  O  O163  1  0.27760000  0.59920000  0.00000000  1
  O  O164  1  0.90080000  0.77760000  0.50000000  1
  O  O165  1  0.40080000  0.27760000  0.00000000  1
  O  O166  1  0.22240000  0.90080000  0.50000000  1
  O  O167  1  0.72240000  0.40080000  0.00000000  1
  O  O168  1  0.90080000  0.22240000  0.50000000  1
  O  O169  1  0.40080000  0.72240000  0.00000000  1
  O  O170  1  0.22240000  0.09920000  0.50000000  1
  O  O171  1  0.72240000  0.59920000  0.00000000  1
  O  O172  1  0.09920000  0.77760000  0.50000000  1
  O  O173  1  0.59920000  0.27760000  0.00000000  1
  O  O174  1  0.77760000  0.90080000  0.50000000  1
  O  O175  1  0.27760000  0.40080000  0.00000000  1
  O  O176  1  0.31810000  0.00000000  0.34680000  1
  O  O177  1  0.81810000  0.50000000  0.84680000  1
  O  O178  1  0.00000000  0.31810000  0.34680000  1
  O  O179  1  0.50000000  0.81810000  0.84680000  1
  O  O180  1  0.68190000  0.00000000  0.34680000  1
  O  O181  1  0.18190000  0.50000000  0.84680000  1
  O  O182  1  0.00000000  0.68190000  0.34680000  1
  O  O183  1  0.50000000  0.18190000  0.84680000  1
  O  O184  1  0.68190000  0.00000000  0.65320000  1
  O  O185  1  0.18190000  0.50000000  0.15320000  1
  O  O186  1  0.00000000  0.68190000  0.65320000  1
  O  O187  1  0.50000000  0.18190000  0.15320000  1
  O  O188  1  0.31810000  0.00000000  0.65320000  1
  O  O189  1  0.81810000  0.50000000  0.15320000  1
  O  O190  1  0.00000000  0.31810000  0.65320000  1
  O  O191  1  0.50000000  0.81810000  0.15320000  1
  O  O192  1  0.36470000  0.13350000  0.34100000  1
  O  O193  1  0.86470000  0.63350000  0.84100000  1
  O  O194  1  0.86650000  0.36470000  0.34100000  1
  O  O195  1  0.36650000  0.86470000  0.84100000  1
  O  O196  1  0.63530000  0.86650000  0.34100000  1
  O  O197  1  0.13530000  0.36650000  0.84100000  1
  O  O198  1  0.13350000  0.63530000  0.34100000  1
  O  O199  1  0.63350000  0.13530000  0.84100000  1
  O  O200  1  0.63530000  0.13350000  0.34100000  1
  O  O201  1  0.13530000  0.63350000  0.84100000  1
  O  O202  1  0.13350000  0.36470000  0.34100000  1
  O  O203  1  0.63350000  0.86470000  0.84100000  1
  O  O204  1  0.36470000  0.86650000  0.34100000  1
  O  O205  1  0.86470000  0.36650000  0.84100000  1
  O  O206  1  0.86650000  0.63530000  0.34100000  1
  O  O207  1  0.36650000  0.13530000  0.84100000  1
  O  O208  1  0.63530000  0.86650000  0.65900000  1
  O  O209  1  0.13530000  0.36650000  0.15900000  1
  O  O210  1  0.13350000  0.63530000  0.65900000  1
  O  O211  1  0.63350000  0.13530000  0.15900000  1
  O  O212  1  0.36470000  0.13350000  0.65900000  1
  O  O213  1  0.86470000  0.63350000  0.15900000  1
  O  O214  1  0.86650000  0.36470000  0.65900000  1
  O  O215  1  0.36650000  0.86470000  0.15900000  1
  O  O216  1  0.36470000  0.86650000  0.65900000  1
  O  O217  1  0.86470000  0.36650000  0.15900000  1
  O  O218  1  0.86650000  0.63530000  0.65900000  1
  O  O219  1  0.36650000  0.13530000  0.15900000  1
  O  O220  1  0.63530000  0.13350000  0.65900000  1
  O  O221  1  0.13530000  0.63350000  0.15900000  1
  O  O222  1  0.13350000  0.36470000  0.65900000  1
  O  O223  1  0.63350000  0.86470000  0.15900000  1
  O  O224  1  0.35740000  0.00000000  0.18780000  1
  O  O225  1  0.85740000  0.50000000  0.68780000  1
  O  O226  1  0.00000000  0.35740000  0.18780000  1
  O  O227  1  0.50000000  0.85740000  0.68780000  1
  O  O228  1  0.64260000  0.00000000  0.18780000  1
  O  O229  1  0.14260000  0.50000000  0.68780000  1
  O  O230  1  0.00000000  0.64260000  0.18780000  1
  O  O231  1  0.50000000  0.14260000  0.68780000  1
  O  O232  1  0.64260000  0.00000000  0.81220000  1
  O  O233  1  0.14260000  0.50000000  0.31220000  1
  O  O234  1  0.00000000  0.64260000  0.81220000  1
  O  O235  1  0.50000000  0.14260000  0.31220000  1
  O  O236  1  0.35740000  0.00000000  0.81220000  1
  O  O237  1  0.85740000  0.50000000  0.31220000  1
  O  O238  1  0.00000000  0.35740000  0.81220000  1
  O  O239  1  0.50000000  0.85740000  0.31220000  1
  O  O240  1  0.39990000  0.10010000  0.25000000  1
  O  O241  1  0.89990000  0.60010000  0.75000000  1
  O  O242  1  0.89990000  0.39990000  0.25000000  1
  O  O243  1  0.39990000  0.89990000  0.75000000  1
  O  O244  1  0.60010000  0.89990000  0.25000000  1
  O  O245  1  0.10010000  0.39990000  0.75000000  1
  O  O246  1  0.10010000  0.60010000  0.25000000  1
  O  O247  1  0.60010000  0.10010000  0.75000000  1
  O  O248  1  0.60010000  0.10010000  0.25000000  1
  O  O249  1  0.10010000  0.60010000  0.75000000  1
  O  O250  1  0.10010000  0.39990000  0.25000000  1
  O  O251  1  0.60010000  0.89990000  0.75000000  1
  O  O252  1  0.39990000  0.89990000  0.25000000  1
  O  O253  1  0.89990000  0.39990000  0.75000000  1
  O  O254  1  0.89990000  0.60010000  0.25000000  1
  O  O255  1  0.39990000  0.10010000  0.75000000  1
