# generated using pymatgen
data_O2
_symmetry_space_group_name_H-M   'P 1'
_cell_length_a   13.22610000
_cell_length_b   13.22610000
_cell_length_c   12.58380000
_cell_angle_alpha   90.00000000
_cell_angle_beta   90.00000000
_cell_angle_gamma   120.00000000
_symmetry_Int_Tables_number   1
_chemical_formula_structural   O2
_chemical_formula_sum   O60
_cell_volume   1906.36494277
_cell_formula_units_Z   30
loop_
 _symmetry_equiv_pos_site_id
 _symmetry_equiv_pos_as_xyz
  1  'x, y, z'
loop_
 _atom_site_type_symbol
 _atom_site_label
 _atom_site_symmetry_multiplicity
 _atom_site_fract_x
 _atom_site_fract_y
 _atom_site_fract_z
 _atom_site_occupancy
  O  O0  1  0.47220000  0.23610000  0.17190000  1
  O  O1  1  0.76390000  0.23610000  0.17190000  1
  O  O2  1  0.76390000  0.52780000  0.17190000  1
  O  O3  1  0.23610000  0.47220000  0.82810000  1
  O  O4  1  0.23610000  0.76390000  0.82810000  1
  O  O5  1  0.52780000  0.76390000  0.82810000  1
  O  O6  1  0.32200000  0.02660000  0.10110000  1
  O  O7  1  0.97340000  0.29540000  0.10110000  1
  O  O8  1  0.70460000  0.67800000  0.10110000  1
  O  O9  1  0.02660000  0.32200000  0.89890000  1
  O  O10  1  0.29540000  0.97340000  0.89890000  1
  O  O11  1  0.67800000  0.70460000  0.89890000  1
  O  O12  1  0.67800000  0.97340000  0.89890000  1
  O  O13  1  0.02660000  0.70460000  0.89890000  1
  O  O14  1  0.29540000  0.32200000  0.89890000  1
  O  O15  1  0.97340000  0.67800000  0.10110000  1
  O  O16  1  0.70460000  0.02660000  0.10110000  1
  O  O17  1  0.32200000  0.29540000  0.10110000  1
  O  O18  1  0.54260000  0.08520000  0.13540000  1
  O  O19  1  0.91480000  0.45740000  0.13540000  1
  O  O20  1  0.54260000  0.45740000  0.13540000  1
  O  O21  1  0.08520000  0.54260000  0.86460000  1
  O  O22  1  0.45740000  0.91480000  0.86460000  1
  O  O23  1  0.45740000  0.54260000  0.86460000  1
  O  O24  1  0.40240000  0.05240000  0.29510000  1
  O  O25  1  0.94760000  0.35000000  0.29510000  1
  O  O26  1  0.65000000  0.59760000  0.29510000  1
  O  O27  1  0.05240000  0.40240000  0.70490000  1
  O  O28  1  0.35000000  0.94760000  0.70490000  1
  O  O29  1  0.59760000  0.65000000  0.70490000  1
  O  O30  1  0.59760000  0.94760000  0.70490000  1
  O  O31  1  0.05240000  0.65000000  0.70490000  1
  O  O32  1  0.35000000  0.40240000  0.70490000  1
  O  O33  1  0.94760000  0.59760000  0.29510000  1
  O  O34  1  0.65000000  0.05240000  0.29510000  1
  O  O35  1  0.40240000  0.35000000  0.29510000  1
  O  O36  1  0.57250000  0.14500000  0.43520000  1
  O  O37  1  0.85500000  0.42750000  0.43520000  1
  O  O38  1  0.57250000  0.42750000  0.43520000  1
  O  O39  1  0.14500000  0.57250000  0.56480000  1
  O  O40  1  0.42750000  0.85500000  0.56480000  1
  O  O41  1  0.42750000  0.57250000  0.56480000  1
  O  O42  1  0.35870000  0.00000000  0.50000000  1
  O  O43  1  0.00000000  0.35870000  0.50000000  1
  O  O44  1  0.64130000  0.64130000  0.50000000  1
  O  O45  1  0.64130000  0.00000000  0.50000000  1
  O  O46  1  0.00000000  0.64130000  0.50000000  1
  O  O47  1  0.35870000  0.35870000  0.50000000  1
  O  O48  1  0.41060000  0.20530000  0.43270000  1
  O  O49  1  0.79470000  0.20530000  0.43270000  1
  O  O50  1  0.79470000  0.58940000  0.43270000  1
  O  O51  1  0.20530000  0.41060000  0.56730000  1
  O  O52  1  0.20530000  0.79470000  0.56730000  1
  O  O53  1  0.58940000  0.79470000  0.56730000  1
  O  O54  1  0.88830000  0.11170000  0.97570000  1
  O  O55  1  0.88830000  0.77660000  0.97570000  1
  O  O56  1  0.22340000  0.11170000  0.97570000  1
  O  O57  1  0.11170000  0.88830000  0.02430000  1
  O  O58  1  0.77660000  0.88830000  0.02430000  1
  O  O59  1  0.11170000  0.22340000  0.02430000  1
