# generated using pymatgen
data_SiO4
_symmetry_space_group_name_H-M   'P 1'
_cell_length_a   13.22610000
_cell_length_b   13.22610000
_cell_length_c   12.58380000
_cell_angle_alpha   90.00000000
_cell_angle_beta   90.00000000
_cell_angle_gamma   120.00000000
_symmetry_Int_Tables_number   1
_chemical_formula_structural   SiO4
_chemical_formula_sum   'Si1 O4'
_cell_volume   1906.36494277
_cell_formula_units_Z   1
loop_
 _symmetry_equiv_pos_site_id
 _symmetry_equiv_pos_as_xyz
  1  'x, y, z'
loop_
 _atom_site_type_symbol
 _atom_site_label
 _atom_site_symmetry_multiplicity
 _atom_site_fract_x
 _atom_site_fract_y
 _atom_site_fract_z
 _atom_site_occupancy
  Si  Si0  1  0.43490000  0.10010000  0.17500000  1
  O  O1  1  0.47220000  0.23610000  0.17190000  1
  O  O2  1  0.32200000  0.02660000  0.10110000  1
  O  O3  1  0.54260000  0.08520000  0.13540000  1
  O  O4  1  0.40240000  0.05240000  0.29510000  1
