# generated using pymatgen
data_SiO4
_symmetry_space_group_name_H-M   'P 1'
_cell_length_a   13.22610000
_cell_length_b   13.22610000
_cell_length_c   12.58380000
_cell_angle_alpha   90.00000000
_cell_angle_beta   90.00000000
_cell_angle_gamma   120.00000000
_symmetry_Int_Tables_number   1
_chemical_formula_structural   SiO4
_chemical_formula_sum   'Si1 O4'
_cell_volume   1906.36494277
_cell_formula_units_Z   1
loop_
 _symmetry_equiv_pos_site_id
 _symmetry_equiv_pos_as_xyz
  1  'x, y, z'
loop_
 _atom_site_type_symbol
 _atom_site_label
 _atom_site_symmetry_multiplicity
 _atom_site_fract_x
 _atom_site_fract_y
 _atom_site_fract_z
 _atom_site_occupancy
  Si  Si0  1  0.09980000  0.43620000  0.58500000  1
  O  O1  1  0.05240000  0.40240000  0.70490000  1
  O  O2  1  0.14500000  0.57250000  0.56480000  1
  O  O3  1  0.00000000  0.35870000  0.50000000  1
  O  O4  1  0.20530000  0.41060000  0.56730000  1
