# generated using pymatgen
data_SiO4
_symmetry_space_group_name_H-M   'P 1'
_cell_length_a   34.83800000
_cell_length_b   34.83800000
_cell_length_c   34.83800000
_cell_angle_alpha   90.00000000
_cell_angle_beta   90.00000000
_cell_angle_gamma   90.00000000
_symmetry_Int_Tables_number   1
_chemical_formula_structural   SiO4
_chemical_formula_sum   'Si1 O4'
_cell_volume   42282.40136847
_cell_formula_units_Z   1
loop_
 _symmetry_equiv_pos_site_id
 _symmetry_equiv_pos_as_xyz
  1  'x, y, z'
loop_
 _atom_site_type_symbol
 _atom_site_label
 _atom_site_symmetry_multiplicity
 _atom_site_fract_x
 _atom_site_fract_y
 _atom_site_fract_z
 _atom_site_occupancy
  Si  Si0  1  0.82150000  0.95580000  0.31260000  1
  O  O1  1  0.78540000  0.92870000  0.30240000  1
  O  O2  1  0.83300000  0.95010000  0.35700000  1
  O  O3  1  0.85720000  0.94420000  0.28570000  1
  O  O4  1  0.81020000  1.00000000  0.30520000  1
