# generated using pymatgen
data_SiO4
_symmetry_space_group_name_H-M   'P 1'
_cell_length_a   34.83800000
_cell_length_b   34.83800000
_cell_length_c   34.83800000
_cell_angle_alpha   90.00000000
_cell_angle_beta   90.00000000
_cell_angle_gamma   90.00000000
_symmetry_Int_Tables_number   1
_chemical_formula_structural   SiO4
_chemical_formula_sum   'Si1 O4'
_cell_volume   42282.40136847
_cell_formula_units_Z   1
loop_
 _symmetry_equiv_pos_site_id
 _symmetry_equiv_pos_as_xyz
  1  'x, y, z'
loop_
 _atom_site_type_symbol
 _atom_site_label
 _atom_site_symmetry_multiplicity
 _atom_site_fract_x
 _atom_site_fract_y
 _atom_site_fract_z
 _atom_site_occupancy
  Si  Si0  1  0.25000000  0.09840000  0.40160000  1
  O  O1  1  0.26190000  0.09200000  0.35740000  1
  O  O2  1  0.23810000  0.14260000  0.40800000  1
  O  O3  1  0.21430000  0.07110000  0.41200000  1
  O  O4  1  0.28570000  0.08800000  0.42890000  1
