# generated using pymatgen
data_SiO4
_symmetry_space_group_name_H-M   'P 1'
_cell_length_a   13.82710000
_cell_length_b   13.82710000
_cell_length_c   8.58035000
_cell_angle_alpha   90.00000000
_cell_angle_beta   90.00000000
_cell_angle_gamma   120.00000000
_symmetry_Int_Tables_number   1
_chemical_formula_structural   SiO4
_chemical_formula_sum   'Si1 O4'
_cell_volume   1420.68515564
_cell_formula_units_Z   1
loop_
 _symmetry_equiv_pos_site_id
 _symmetry_equiv_pos_as_xyz
  1  'x, y, z'
loop_
 _atom_site_type_symbol
 _atom_site_label
 _atom_site_symmetry_multiplicity
 _atom_site_fract_x
 _atom_site_fract_y
 _atom_site_fract_z
 _atom_site_occupancy
  Si  Si0  1  0.54350000  0.87687000  0.68735000  1
  O  O1  1  0.54348000  0.87681333  0.50000000  1
  O  O2  1  0.63072000  1.00000000  0.75000000  1
  O  O3  1  0.57996000  0.78998000  0.75000000  1
  O  O4  1  0.42017000  0.84034000  0.75000000  1
