# generated using pymatgen
data_SiO4
_symmetry_space_group_name_H-M   'P 1'
_cell_length_a   11.67300000
_cell_length_b   21.96900000
_cell_length_c   25.17000000
_cell_angle_alpha   90.00000000
_cell_angle_beta   90.00000000
_cell_angle_gamma   90.00000000
_symmetry_Int_Tables_number   1
_chemical_formula_structural   SiO4
_chemical_formula_sum   'Si1 O4'
_cell_volume   6454.69892829
_cell_formula_units_Z   1
loop_
 _symmetry_equiv_pos_site_id
 _symmetry_equiv_pos_as_xyz
  1  'x, y, z'
loop_
 _atom_site_type_symbol
 _atom_site_label
 _atom_site_symmetry_multiplicity
 _atom_site_fract_x
 _atom_site_fract_y
 _atom_site_fract_z
 _atom_site_occupancy
  Si  Si0  1  0.63150000  0.06910000  0.56170000  1
  O  O1  1  0.71020000  0.11300000  0.59770000  1
  O  O2  1  0.64760000  -0.00060000  0.57990000  1
  O  O3  1  0.66480000  0.07650000  0.50000000  1
  O  O4  1  0.50000000  0.08900000  0.56990000  1
