# generated using pymatgen
data_SiO4
_symmetry_space_group_name_H-M   'P 1'
_cell_length_a   11.67300000
_cell_length_b   21.96900000
_cell_length_c   25.17000000
_cell_angle_alpha   90.00000000
_cell_angle_beta   90.00000000
_cell_angle_gamma   90.00000000
_symmetry_Int_Tables_number   1
_chemical_formula_structural   SiO4
_chemical_formula_sum   'Si1 O4'
_cell_volume   6454.69892829
_cell_formula_units_Z   1
loop_
 _symmetry_equiv_pos_site_id
 _symmetry_equiv_pos_as_xyz
  1  'x, y, z'
loop_
 _atom_site_type_symbol
 _atom_site_label
 _atom_site_symmetry_multiplicity
 _atom_site_fract_x
 _atom_site_fract_y
 _atom_site_fract_z
 _atom_site_occupancy
  Si  Si0  1  0.28540000  0.37470000  0.84980000  1
  O  O1  1  0.19420000  0.37990000  0.80200000  1
  O  O2  1  0.38730000  0.42310000  0.84100000  1
  O  O3  1  0.21790000  0.38750000  0.90440000  1
  O  O4  1  0.33830000  0.30710000  0.84970000  1
