# generated using pymatgen
data_O2
_symmetry_space_group_name_H-M   'P 1'
_cell_length_a   11.67300000
_cell_length_b   21.96900000
_cell_length_c   25.17000000
_cell_angle_alpha   90.00000000
_cell_angle_beta   90.00000000
_cell_angle_gamma   90.00000000
_symmetry_Int_Tables_number   1
_chemical_formula_structural   O2
_chemical_formula_sum   O224
_cell_volume   6454.69892829
_cell_formula_units_Z   112
loop_
 _symmetry_equiv_pos_site_id
 _symmetry_equiv_pos_as_xyz
  1  'x, y, z'
loop_
 _atom_site_type_symbol
 _atom_site_label
 _atom_site_symmetry_multiplicity
 _atom_site_fract_x
 _atom_site_fract_y
 _atom_site_fract_z
 _atom_site_occupancy
  O  O0  1  0.30580000  0.12010000  0.19800000  1
  O  O1  1  0.80580000  0.62010000  0.19800000  1
  O  O2  1  0.69420000  0.87990000  0.69800000  1
  O  O3  1  0.19420000  0.37990000  0.69800000  1
  O  O4  1  0.69420000  0.12010000  0.30200000  1
  O  O5  1  0.19420000  0.62010000  0.30200000  1
  O  O6  1  0.30580000  0.87990000  0.80200000  1
  O  O7  1  0.80580000  0.37990000  0.80200000  1
  O  O8  1  0.69420000  0.87990000  0.80200000  1
  O  O9  1  0.19420000  0.37990000  0.80200000  1
  O  O10  1  0.30580000  0.12010000  0.30200000  1
  O  O11  1  0.80580000  0.62010000  0.30200000  1
  O  O12  1  0.30580000  0.87990000  0.69800000  1
  O  O13  1  0.80580000  0.37990000  0.69800000  1
  O  O14  1  0.69420000  0.12010000  0.19800000  1
  O  O15  1  0.19420000  0.62010000  0.19800000  1
  O  O16  1  0.11270000  0.07690000  0.15900000  1
  O  O17  1  0.61270000  0.57690000  0.15900000  1
  O  O18  1  0.88730000  0.92310000  0.65900000  1
  O  O19  1  0.38730000  0.42310000  0.65900000  1
  O  O20  1  0.88730000  0.07690000  0.34100000  1
  O  O21  1  0.38730000  0.57690000  0.34100000  1
  O  O22  1  0.11270000  0.92310000  0.84100000  1
  O  O23  1  0.61270000  0.42310000  0.84100000  1
  O  O24  1  0.88730000  0.92310000  0.84100000  1
  O  O25  1  0.38730000  0.42310000  0.84100000  1
  O  O26  1  0.11270000  0.07690000  0.34100000  1
  O  O27  1  0.61270000  0.57690000  0.34100000  1
  O  O28  1  0.11270000  0.92310000  0.65900000  1
  O  O29  1  0.61270000  0.42310000  0.65900000  1
  O  O30  1  0.88730000  0.07690000  0.15900000  1
  O  O31  1  0.38730000  0.57690000  0.15900000  1
  O  O32  1  0.28210000  0.11250000  0.09560000  1
  O  O33  1  0.78210000  0.61250000  0.09560000  1
  O  O34  1  0.71790000  0.88750000  0.59560000  1
  O  O35  1  0.21790000  0.38750000  0.59560000  1
  O  O36  1  0.71790000  0.11250000  0.40440000  1
  O  O37  1  0.21790000  0.61250000  0.40440000  1
  O  O38  1  0.28210000  0.88750000  0.90440000  1
  O  O39  1  0.78210000  0.38750000  0.90440000  1
  O  O40  1  0.71790000  0.88750000  0.90440000  1
  O  O41  1  0.21790000  0.38750000  0.90440000  1
  O  O42  1  0.28210000  0.11250000  0.40440000  1
  O  O43  1  0.78210000  0.61250000  0.40440000  1
  O  O44  1  0.28210000  0.88750000  0.59560000  1
  O  O45  1  0.78210000  0.38750000  0.59560000  1
  O  O46  1  0.71790000  0.11250000  0.09560000  1
  O  O47  1  0.21790000  0.61250000  0.09560000  1
  O  O48  1  0.16170000  0.19290000  0.15030000  1
  O  O49  1  0.66170000  0.69290000  0.15030000  1
  O  O50  1  0.83830000  0.80710000  0.65030000  1
  O  O51  1  0.33830000  0.30710000  0.65030000  1
  O  O52  1  0.83830000  0.19290000  0.34970000  1
  O  O53  1  0.33830000  0.69290000  0.34970000  1
  O  O54  1  0.16170000  0.80710000  0.84970000  1
  O  O55  1  0.66170000  0.30710000  0.84970000  1
  O  O56  1  0.83830000  0.80710000  0.84970000  1
  O  O57  1  0.33830000  0.30710000  0.84970000  1
  O  O58  1  0.16170000  0.19290000  0.34970000  1
  O  O59  1  0.66170000  0.69290000  0.34970000  1
  O  O60  1  0.16170000  0.80710000  0.65030000  1
  O  O61  1  0.66170000  0.30710000  0.65030000  1
  O  O62  1  0.83830000  0.19290000  0.15030000  1
  O  O63  1  0.33830000  0.69290000  0.15030000  1
  O  O64  1  0.28980000  0.11300000  0.59770000  1
  O  O65  1  0.78980000  0.61300000  0.59770000  1
  O  O66  1  0.71020000  0.88700000  0.09770000  1
  O  O67  1  0.21020000  0.38700000  0.09770000  1
  O  O68  1  0.71020000  0.11300000  0.90230000  1
  O  O69  1  0.21020000  0.61300000  0.90230000  1
  O  O70  1  0.28980000  0.88700000  0.40230000  1
  O  O71  1  0.78980000  0.38700000  0.40230000  1
  O  O72  1  0.71020000  0.88700000  0.40230000  1
  O  O73  1  0.21020000  0.38700000  0.40230000  1
  O  O74  1  0.28980000  0.11300000  0.90230000  1
  O  O75  1  0.78980000  0.61300000  0.90230000  1
  O  O76  1  0.28980000  0.88700000  0.09770000  1
  O  O77  1  0.78980000  0.38700000  0.09770000  1
  O  O78  1  0.71020000  0.11300000  0.59770000  1
  O  O79  1  0.21020000  0.61300000  0.59770000  1
  O  O80  1  0.30540000  0.07800000  0.69760000  1
  O  O81  1  0.80540000  0.57800000  0.69760000  1
  O  O82  1  0.69460000  0.92200000  0.19760000  1
  O  O83  1  0.19460000  0.42200000  0.19760000  1
  O  O84  1  0.69460000  0.07800000  0.80240000  1
  O  O85  1  0.19460000  0.57800000  0.80240000  1
  O  O86  1  0.30540000  0.92200000  0.30240000  1
  O  O87  1  0.80540000  0.42200000  0.30240000  1
  O  O88  1  0.69460000  0.92200000  0.30240000  1
  O  O89  1  0.19460000  0.42200000  0.30240000  1
  O  O90  1  0.30540000  0.07800000  0.80240000  1
  O  O91  1  0.80540000  0.57800000  0.80240000  1
  O  O92  1  0.30540000  0.92200000  0.19760000  1
  O  O93  1  0.80540000  0.42200000  0.19760000  1
  O  O94  1  0.69460000  0.07800000  0.69760000  1
  O  O95  1  0.19460000  0.57800000  0.69760000  1
  O  O96  1  0.11210000  0.12080000  0.65980000  1
  O  O97  1  0.61210000  0.62080000  0.65980000  1
  O  O98  1  0.88790000  0.87920000  0.15980000  1
  O  O99  1  0.38790000  0.37920000  0.15980000  1
  O  O100  1  0.88790000  0.12080000  0.84020000  1
  O  O101  1  0.38790000  0.62080000  0.84020000  1
  O  O102  1  0.11210000  0.87920000  0.34020000  1
  O  O103  1  0.61210000  0.37920000  0.34020000  1
  O  O104  1  0.88790000  0.87920000  0.34020000  1
  O  O105  1  0.38790000  0.37920000  0.34020000  1
  O  O106  1  0.11210000  0.12080000  0.84020000  1
  O  O107  1  0.61210000  0.62080000  0.84020000  1
  O  O108  1  0.11210000  0.87920000  0.15980000  1
  O  O109  1  0.61210000  0.37920000  0.15980000  1
  O  O110  1  0.88790000  0.12080000  0.65980000  1
  O  O111  1  0.38790000  0.62080000  0.65980000  1
  O  O112  1  0.28590000  0.19450000  0.67480000  1
  O  O113  1  0.78590000  0.69450000  0.67480000  1
  O  O114  1  0.71410000  0.80550000  0.17480000  1
  O  O115  1  0.21410000  0.30550000  0.17480000  1
  O  O116  1  0.71410000  0.19450000  0.82520000  1
  O  O117  1  0.21410000  0.69450000  0.82520000  1
  O  O118  1  0.28590000  0.80550000  0.32520000  1
  O  O119  1  0.78590000  0.30550000  0.32520000  1
  O  O120  1  0.71410000  0.80550000  0.32520000  1
  O  O121  1  0.21410000  0.30550000  0.32520000  1
  O  O122  1  0.28590000  0.19450000  0.82520000  1
  O  O123  1  0.78590000  0.69450000  0.82520000  1
  O  O124  1  0.28590000  0.80550000  0.17480000  1
  O  O125  1  0.78590000  0.30550000  0.17480000  1
  O  O126  1  0.71410000  0.19450000  0.67480000  1
  O  O127  1  0.21410000  0.69450000  0.67480000  1
  O  O128  1  0.15030000  0.22950000  0.25000000  1
  O  O129  1  0.65030000  0.72950000  0.25000000  1
  O  O130  1  0.84970000  0.77050000  0.75000000  1
  O  O131  1  0.34970000  0.27050000  0.75000000  1
  O  O132  1  0.84970000  0.22950000  0.25000000  1
  O  O133  1  0.34970000  0.72950000  0.25000000  1
  O  O134  1  0.15030000  0.77050000  0.75000000  1
  O  O135  1  0.65030000  0.27050000  0.75000000  1
  O  O136  1  0.00000000  0.26880000  0.18020000  1
  O  O137  1  0.50000000  0.76880000  0.18020000  1
  O  O138  1  0.00000000  0.73120000  0.68020000  1
  O  O139  1  0.50000000  0.23120000  0.68020000  1
  O  O140  1  0.00000000  0.26880000  0.31980000  1
  O  O141  1  0.50000000  0.76880000  0.31980000  1
  O  O142  1  0.00000000  0.73120000  0.81980000  1
  O  O143  1  0.50000000  0.23120000  0.81980000  1
  O  O144  1  0.00000000  0.40960000  0.57060000  1
  O  O145  1  0.50000000  0.90960000  0.57060000  1
  O  O146  1  0.00000000  0.59040000  0.07060000  1
  O  O147  1  0.50000000  0.09040000  0.07060000  1
  O  O148  1  0.00000000  0.40960000  0.92940000  1
  O  O149  1  0.50000000  0.90960000  0.92940000  1
  O  O150  1  0.00000000  0.59040000  0.42940000  1
  O  O151  1  0.50000000  0.09040000  0.42940000  1
  O  O152  1  0.14760000  0.49940000  0.57990000  1
  O  O153  1  0.64760000  0.99940000  0.57990000  1
  O  O154  1  0.85240000  0.50060000  0.07990000  1
  O  O155  1  0.35240000  0.00060000  0.07990000  1
  O  O156  1  0.85240000  0.49940000  0.92010000  1
  O  O157  1  0.35240000  0.99940000  0.92010000  1
  O  O158  1  0.14760000  0.50060000  0.42010000  1
  O  O159  1  0.64760000  0.00060000  0.42010000  1
  O  O160  1  0.85240000  0.50060000  0.42010000  1
  O  O161  1  0.35240000  0.00060000  0.42010000  1
  O  O162  1  0.14760000  0.49940000  0.92010000  1
  O  O163  1  0.64760000  0.99940000  0.92010000  1
  O  O164  1  0.14760000  0.50060000  0.07990000  1
  O  O165  1  0.64760000  0.00060000  0.07990000  1
  O  O166  1  0.85240000  0.49940000  0.57990000  1
  O  O167  1  0.35240000  0.99940000  0.57990000  1
  O  O168  1  0.16480000  0.42350000  0.50000000  1
  O  O169  1  0.66480000  0.92350000  0.50000000  1
  O  O170  1  0.83520000  0.57650000  0.00000000  1
  O  O171  1  0.33520000  0.07650000  0.00000000  1
  O  O172  1  0.83520000  0.42350000  0.00000000  1
  O  O173  1  0.33520000  0.92350000  0.00000000  1
  O  O174  1  0.16480000  0.57650000  0.50000000  1
  O  O175  1  0.66480000  0.07650000  0.50000000  1
  O  O176  1  0.83520000  0.57650000  0.50000000  1
  O  O177  1  0.33520000  0.07650000  0.50000000  1
  O  O178  1  0.16480000  0.42350000  0.00000000  1
  O  O179  1  0.66480000  0.92350000  0.00000000  1
  O  O180  1  0.16480000  0.57650000  0.00000000  1
  O  O181  1  0.66480000  0.07650000  0.00000000  1
  O  O182  1  0.83520000  0.42350000  0.50000000  1
  O  O183  1  0.33520000  0.92350000  0.50000000  1
  O  O184  1  0.00000000  0.41100000  0.06990000  1
  O  O185  1  0.50000000  0.91100000  0.06990000  1
  O  O186  1  0.00000000  0.58900000  0.56990000  1
  O  O187  1  0.50000000  0.08900000  0.56990000  1
  O  O188  1  0.00000000  0.41100000  0.43010000  1
  O  O189  1  0.50000000  0.91100000  0.43010000  1
  O  O190  1  0.00000000  0.58900000  0.93010000  1
  O  O191  1  0.50000000  0.08900000  0.93010000  1
  O  O192  1  0.00000000  0.38470000  0.75000000  1
  O  O193  1  0.50000000  0.88470000  0.75000000  1
  O  O194  1  0.00000000  0.61530000  0.25000000  1
  O  O195  1  0.50000000  0.11530000  0.25000000  1
  O  O196  1  0.13780000  0.47950000  0.75000000  1
  O  O197  1  0.63780000  0.97950000  0.75000000  1
  O  O198  1  0.86220000  0.52050000  0.25000000  1
  O  O199  1  0.36220000  0.02050000  0.25000000  1
  O  O200  1  0.86220000  0.47950000  0.75000000  1
  O  O201  1  0.36220000  0.97950000  0.75000000  1
  O  O202  1  0.13780000  0.52050000  0.25000000  1
  O  O203  1  0.63780000  0.02050000  0.25000000  1
  O  O204  1  0.00000000  0.42570000  0.25000000  1
  O  O205  1  0.50000000  0.92570000  0.25000000  1
  O  O206  1  0.00000000  0.57430000  0.75000000  1
  O  O207  1  0.50000000  0.07430000  0.75000000  1
  O  O208  1  0.00000000  0.97890000  0.18610000  1
  O  O209  1  0.50000000  0.47890000  0.18610000  1
  O  O210  1  0.00000000  0.02110000  0.68610000  1
  O  O211  1  0.50000000  0.52110000  0.68610000  1
  O  O212  1  0.00000000  0.97890000  0.31390000  1
  O  O213  1  0.50000000  0.47890000  0.31390000  1
  O  O214  1  0.00000000  0.02110000  0.81390000  1
  O  O215  1  0.50000000  0.52110000  0.81390000  1
  O  O216  1  0.00000000  0.07350000  0.25000000  1
  O  O217  1  0.50000000  0.57350000  0.25000000  1
  O  O218  1  0.00000000  0.92650000  0.75000000  1
  O  O219  1  0.50000000  0.42650000  0.75000000  1
  O  O220  1  0.00000000  0.11590000  0.75000000  1
  O  O221  1  0.50000000  0.61590000  0.75000000  1
  O  O222  1  0.00000000  0.88410000  0.25000000  1
  O  O223  1  0.50000000  0.38410000  0.25000000  1
