# generated using pymatgen
data_Si
_symmetry_space_group_name_H-M   'P 1'
_cell_length_a   11.67300000
_cell_length_b   21.96900000
_cell_length_c   25.17000000
_cell_angle_alpha   90.00000000
_cell_angle_beta   90.00000000
_cell_angle_gamma   90.00000000
_symmetry_Int_Tables_number   1
_chemical_formula_structural   Si
_chemical_formula_sum   Si112
_cell_volume   6454.69892829
_cell_formula_units_Z   112
loop_
 _symmetry_equiv_pos_site_id
 _symmetry_equiv_pos_as_xyz
  1  'x, y, z'
loop_
 _atom_site_type_symbol
 _atom_site_label
 _atom_site_symmetry_multiplicity
 _atom_site_fract_x
 _atom_site_fract_y
 _atom_site_fract_z
 _atom_site_occupancy
  Si  Si0  1  0.21460000  0.12530000  0.15020000  1
  Si  Si1  1  0.71460000  0.62530000  0.15020000  1
  Si  Si2  1  0.78540000  0.87470000  0.65020000  1
  Si  Si3  1  0.28540000  0.37470000  0.65020000  1
  Si  Si4  1  0.78540000  0.12530000  0.34980000  1
  Si  Si5  1  0.28540000  0.62530000  0.34980000  1
  Si  Si6  1  0.21460000  0.87470000  0.84980000  1
  Si  Si7  1  0.71460000  0.37470000  0.84980000  1
  Si  Si8  1  0.78540000  0.87470000  0.84980000  1
  Si  Si9  1  0.28540000  0.37470000  0.84980000  1
  Si  Si10  1  0.21460000  0.12530000  0.34980000  1
  Si  Si11  1  0.71460000  0.62530000  0.34980000  1
  Si  Si12  1  0.21460000  0.87470000  0.65020000  1
  Si  Si13  1  0.71460000  0.37470000  0.65020000  1
  Si  Si14  1  0.78540000  0.12530000  0.15020000  1
  Si  Si15  1  0.28540000  0.62530000  0.15020000  1
  Si  Si16  1  0.24940000  0.12670000  0.65760000  1
  Si  Si17  1  0.74940000  0.62670000  0.65760000  1
  Si  Si18  1  0.75060000  0.87330000  0.15760000  1
  Si  Si19  1  0.25060000  0.37330000  0.15760000  1
  Si  Si20  1  0.75060000  0.12670000  0.84240000  1
  Si  Si21  1  0.25060000  0.62670000  0.84240000  1
  Si  Si22  1  0.24940000  0.87330000  0.34240000  1
  Si  Si23  1  0.74940000  0.37330000  0.34240000  1
  Si  Si24  1  0.75060000  0.87330000  0.34240000  1
  Si  Si25  1  0.25060000  0.37330000  0.34240000  1
  Si  Si26  1  0.24940000  0.12670000  0.84240000  1
  Si  Si27  1  0.74940000  0.62670000  0.84240000  1
  Si  Si28  1  0.24940000  0.87330000  0.15760000  1
  Si  Si29  1  0.74940000  0.37330000  0.15760000  1
  Si  Si30  1  0.75060000  0.12670000  0.65760000  1
  Si  Si31  1  0.25060000  0.62670000  0.65760000  1
  Si  Si32  1  0.13150000  0.24910000  0.18900000  1
  Si  Si33  1  0.63150000  0.74910000  0.18900000  1
  Si  Si34  1  0.86850000  0.75090000  0.68900000  1
  Si  Si35  1  0.36850000  0.25090000  0.68900000  1
  Si  Si36  1  0.86850000  0.24910000  0.31100000  1
  Si  Si37  1  0.36850000  0.74910000  0.31100000  1
  Si  Si38  1  0.13150000  0.75090000  0.81100000  1
  Si  Si39  1  0.63150000  0.25090000  0.81100000  1
  Si  Si40  1  0.86850000  0.75090000  0.81100000  1
  Si  Si41  1  0.36850000  0.25090000  0.81100000  1
  Si  Si42  1  0.13150000  0.24910000  0.31100000  1
  Si  Si43  1  0.63150000  0.74910000  0.31100000  1
  Si  Si44  1  0.13150000  0.75090000  0.68900000  1
  Si  Si45  1  0.63150000  0.25090000  0.68900000  1
  Si  Si46  1  0.86850000  0.24910000  0.18900000  1
  Si  Si47  1  0.36850000  0.74910000  0.18900000  1
  Si  Si48  1  0.13140000  0.42950000  0.56180000  1
  Si  Si49  1  0.63140000  0.92950000  0.56180000  1
  Si  Si50  1  0.86860000  0.57050000  0.06180000  1
  Si  Si51  1  0.36860000  0.07050000  0.06180000  1
  Si  Si52  1  0.86860000  0.42950000  0.93820000  1
  Si  Si53  1  0.36860000  0.92950000  0.93820000  1
  Si  Si54  1  0.13140000  0.57050000  0.43820000  1
  Si  Si55  1  0.63140000  0.07050000  0.43820000  1
  Si  Si56  1  0.86860000  0.57050000  0.43820000  1
  Si  Si57  1  0.36860000  0.07050000  0.43820000  1
  Si  Si58  1  0.13140000  0.42950000  0.93820000  1
  Si  Si59  1  0.63140000  0.92950000  0.93820000  1
  Si  Si60  1  0.13140000  0.57050000  0.06180000  1
  Si  Si61  1  0.63140000  0.07050000  0.06180000  1
  Si  Si62  1  0.86860000  0.42950000  0.56180000  1
  Si  Si63  1  0.36860000  0.92950000  0.56180000  1
  Si  Si64  1  0.13150000  0.43090000  0.06170000  1
  Si  Si65  1  0.63150000  0.93090000  0.06170000  1
  Si  Si66  1  0.86850000  0.56910000  0.56170000  1
  Si  Si67  1  0.36850000  0.06910000  0.56170000  1
  Si  Si68  1  0.86850000  0.43090000  0.43830000  1
  Si  Si69  1  0.36850000  0.93090000  0.43830000  1
  Si  Si70  1  0.13150000  0.56910000  0.93830000  1
  Si  Si71  1  0.63150000  0.06910000  0.93830000  1
  Si  Si72  1  0.86850000  0.56910000  0.93830000  1
  Si  Si73  1  0.36850000  0.06910000  0.93830000  1
  Si  Si74  1  0.13150000  0.43090000  0.43830000  1
  Si  Si75  1  0.63150000  0.93090000  0.43830000  1
  Si  Si76  1  0.13150000  0.56910000  0.56170000  1
  Si  Si77  1  0.63150000  0.06910000  0.56170000  1
  Si  Si78  1  0.86850000  0.43090000  0.06170000  1
  Si  Si79  1  0.36850000  0.93090000  0.06170000  1
  Si  Si80  1  0.13170000  0.40640000  0.75000000  1
  Si  Si81  1  0.63170000  0.90640000  0.75000000  1
  Si  Si82  1  0.86830000  0.59360000  0.25000000  1
  Si  Si83  1  0.36830000  0.09360000  0.25000000  1
  Si  Si84  1  0.86830000  0.40640000  0.75000000  1
  Si  Si85  1  0.36830000  0.90640000  0.75000000  1
  Si  Si86  1  0.13170000  0.59360000  0.25000000  1
  Si  Si87  1  0.63170000  0.09360000  0.25000000  1
  Si  Si88  1  0.13170000  0.44740000  0.25000000  1
  Si  Si89  1  0.63170000  0.94740000  0.25000000  1
  Si  Si90  1  0.86830000  0.55260000  0.75000000  1
  Si  Si91  1  0.36830000  0.05260000  0.75000000  1
  Si  Si92  1  0.86830000  0.44740000  0.25000000  1
  Si  Si93  1  0.36830000  0.94740000  0.25000000  1
  Si  Si94  1  0.13170000  0.55260000  0.75000000  1
  Si  Si95  1  0.63170000  0.05260000  0.75000000  1
  Si  Si96  1  0.00000000  0.05210000  0.18880000  1
  Si  Si97  1  0.50000000  0.55210000  0.18880000  1
  Si  Si98  1  0.00000000  0.94790000  0.68880000  1
  Si  Si99  1  0.50000000  0.44790000  0.68880000  1
  Si  Si100  1  0.00000000  0.05210000  0.31120000  1
  Si  Si101  1  0.50000000  0.55210000  0.31120000  1
  Si  Si102  1  0.00000000  0.94790000  0.81120000  1
  Si  Si103  1  0.50000000  0.44790000  0.81120000  1
  Si  Si104  1  0.00000000  0.09420000  0.68890000  1
  Si  Si105  1  0.50000000  0.59420000  0.68890000  1
  Si  Si106  1  0.00000000  0.90580000  0.18890000  1
  Si  Si107  1  0.50000000  0.40580000  0.18890000  1
  Si  Si108  1  0.00000000  0.09420000  0.81110000  1
  Si  Si109  1  0.50000000  0.59420000  0.81110000  1
  Si  Si110  1  0.00000000  0.90580000  0.31110000  1
  Si  Si111  1  0.50000000  0.40580000  0.31110000  1
