# generated using pymatgen
data_O2
_symmetry_space_group_name_H-M   'P 1'
_cell_length_a   5.25600000
_cell_length_b   7.45000000
_cell_length_c   8.15900000
_cell_angle_alpha   90.00000000
_cell_angle_beta   90.00000000
_cell_angle_gamma   90.00000000
_symmetry_Int_Tables_number   1
_chemical_formula_structural   O2
_chemical_formula_sum   O12
_cell_volume   319.48359480
_cell_formula_units_Z   6
loop_
 _symmetry_equiv_pos_site_id
 _symmetry_equiv_pos_as_xyz
  1  'x, y, z'
loop_
 _atom_site_type_symbol
 _atom_site_label
 _atom_site_symmetry_multiplicity
 _atom_site_fract_x
 _atom_site_fract_y
 _atom_site_fract_z
 _atom_site_occupancy
  O  O0  1  0.00000000  0.26120000  0.00000000  1
  O  O1  1  0.50000000  0.26120000  0.00000000  1
  O  O2  1  0.00000000  0.73880000  0.00000000  1
  O  O3  1  0.50000000  0.73880000  0.00000000  1
  O  O4  1  0.25000000  0.00000000  0.14550000  1
  O  O5  1  0.75000000  0.00000000  0.85450000  1
  O  O6  1  0.25000000  0.32350000  0.27280000  1
  O  O7  1  0.25000000  0.67650000  0.27280000  1
  O  O8  1  0.75000000  0.67650000  0.72720000  1
  O  O9  1  0.75000000  0.32350000  0.72720000  1
  O  O10  1  0.50000000  0.50000000  0.50000000  1
  O  O11  1  0.00000000  0.50000000  0.50000000  1
