# generated using pymatgen
data_O2
_symmetry_space_group_name_H-M   'P 1'
_cell_length_a   8.83167000
_cell_length_b   9.63443000
_cell_length_c   10.65257000
_cell_angle_alpha   104.41340000
_cell_angle_beta   99.80120000
_cell_angle_gamma   99.49790000
_symmetry_Int_Tables_number   1
_chemical_formula_structural   O2
_chemical_formula_sum   O42
_cell_volume   844.39461179
_cell_formula_units_Z   21
loop_
 _symmetry_equiv_pos_site_id
 _symmetry_equiv_pos_as_xyz
  1  'x, y, z'
loop_
 _atom_site_type_symbol
 _atom_site_label
 _atom_site_symmetry_multiplicity
 _atom_site_fract_x
 _atom_site_fract_y
 _atom_site_fract_z
 _atom_site_occupancy
  O  O0  1  0.51290000  0.16630000  0.23470000  1
  O  O1  1  0.48710000  0.83370000  0.76530000  1
  O  O2  1  0.69110000  0.45070000  0.93450000  1
  O  O3  1  0.30890000  0.54930000  0.06550000  1
  O  O4  1  0.40670000  0.94340000  0.32610000  1
  O  O5  1  0.59330000  0.05660000  0.67390000  1
  O  O6  1  0.39470000  0.32110000  0.81360000  1
  O  O7  1  0.60530000  0.67890000  0.18640000  1
  O  O8  1  0.39470000  0.18580000  0.00330000  1
  O  O9  1  0.60530000  0.81420000  0.99670000  1
  O  O10  1  0.13310000  0.77590000  0.29640000  1
  O  O11  1  0.86690000  0.22410000  0.70360000  1
  O  O12  1  0.47030000  0.41820000  0.21120000  1
  O  O13  1  0.52970000  0.58180000  0.78880000  1
  O  O14  1  0.69470000  0.30150000  0.11580000  1
  O  O15  1  0.30530000  0.69850000  0.88420000  1
  O  O16  1  0.12210000  0.19500000  0.84590000  1
  O  O17  1  0.87790000  0.80500000  0.15410000  1
  O  O18  1  0.66510000  0.13790000  0.47290000  1
  O  O19  1  0.33490000  0.86210000  0.52710000  1
  O  O20  1  0.68850000  0.96610000  0.24500000  1
  O  O21  1  0.31150000  0.03390000  0.75500000  1
  O  O22  1  0.39360000  0.66560000  0.32660000  1
  O  O23  1  0.60640000  0.33440000  0.67340000  1
  O  O24  1  0.92080000  0.54170000  0.15450000  1
  O  O25  1  0.07920000  0.45830000  0.84550000  1
  O  O26  1  0.90880000  0.29610000  0.96650000  1
  O  O27  1  0.09120000  0.70390000  0.03350000  1
  O  O28  1  0.03310000  0.43430000  0.48120000  1
  O  O29  1  0.96690000  0.56570000  0.51880000  1
  O  O30  1  0.22800000  0.46950000  0.54440000  1
  O  O31  1  0.77200000  0.53050000  0.45560000  1
  O  O32  1  0.28040000  0.34820000  0.43520000  1
  O  O33  1  0.71960000  0.65180000  0.56480000  1
  O  O34  1  0.12010000  0.22340000  0.35770000  1
  O  O35  1  0.87990000  0.77660000  0.64230000  1
  O  O36  1  0.97460000  0.31250000  0.34260000  1
  O  O37  1  0.02540000  0.68750000  0.65740000  1
  O  O38  1  0.08040000  0.11270000  0.43750000  1
  O  O39  1  0.91960000  0.88730000  0.56250000  1
  O  O40  1  0.12620000  0.15330000  0.20780000  1
  O  O41  1  0.87380000  0.84670000  0.79220000  1
