# generated using pymatgen
data_Si
_symmetry_space_group_name_H-M   'P 1'
_cell_length_a   8.83167000
_cell_length_b   9.63443000
_cell_length_c   10.65257000
_cell_angle_alpha   104.41340000
_cell_angle_beta   99.80120000
_cell_angle_gamma   99.49790000
_symmetry_Int_Tables_number   1
_chemical_formula_structural   Si
_chemical_formula_sum   Si14
_cell_volume   844.39461179
_cell_formula_units_Z   14
loop_
 _symmetry_equiv_pos_site_id
 _symmetry_equiv_pos_as_xyz
  1  'x, y, z'
loop_
 _atom_site_type_symbol
 _atom_site_label
 _atom_site_symmetry_multiplicity
 _atom_site_fract_x
 _atom_site_fract_y
 _atom_site_fract_z
 _atom_site_occupancy
  Si  Si0  1  0.52281000  0.26859000  0.14085000  1
  Si  Si1  1  0.47719000  0.73141000  0.85915000  1
  Si  Si2  1  0.55639000  0.42158000  0.80662000  1
  Si  Si3  1  0.44361000  0.57842000  0.19338000  1
  Si  Si4  1  0.57067000  0.05309000  0.32170000  1
  Si  Si5  1  0.42933000  0.94691000  0.67830000  1
  Si  Si6  1  0.31539000  0.81116000  0.36831000  1
  Si  Si7  1  0.68461000  0.18884000  0.63169000  1
  Si  Si8  1  0.30839000  0.18448000  0.85666000  1
  Si  Si9  1  0.69161000  0.81552000  0.14334000  1
  Si  Si10  1  0.00189000  0.70520000  0.15650000  1
  Si  Si11  1  0.99811000  0.29480000  0.84350000  1
  Si  Si12  1  0.80372000  0.39847000  0.03992000  1
  Si  Si13  1  0.19628000  0.60153000  0.96008000  1
