# generated using pymatgen
data_SiO4
_symmetry_space_group_name_H-M   'P 1'
_cell_length_a   8.83167000
_cell_length_b   9.63443000
_cell_length_c   10.65257000
_cell_angle_alpha   104.41340000
_cell_angle_beta   99.80120000
_cell_angle_gamma   99.49790000
_symmetry_Int_Tables_number   1
_chemical_formula_structural   SiO4
_chemical_formula_sum   'Si1 O4'
_cell_volume   844.39461179
_cell_formula_units_Z   1
loop_
 _symmetry_equiv_pos_site_id
 _symmetry_equiv_pos_as_xyz
  1  'x, y, z'
loop_
 _atom_site_type_symbol
 _atom_site_label
 _atom_site_symmetry_multiplicity
 _atom_site_fract_x
 _atom_site_fract_y
 _atom_site_fract_z
 _atom_site_occupancy
  Si  Si0  1  0.69161000  0.81552000  0.14334000  1
  O  O1  1  0.60530000  0.67890000  0.18640000  1
  O  O2  1  0.60530000  0.81420000  -0.00330000  1
  O  O3  1  0.87790000  0.80500000  0.15410000  1
  O  O4  1  0.68850000  0.96610000  0.24500000  1
