# generated using pymatgen
data_Si
_symmetry_space_group_name_H-M   'P 1'
_cell_length_a   7.13500000
_cell_length_b   7.13500000
_cell_length_c   17.80900000
_cell_angle_alpha   90.00000000
_cell_angle_beta   90.00000000
_cell_angle_gamma   90.00000000
_symmetry_Int_Tables_number   1
_chemical_formula_structural   Si
_chemical_formula_sum   Si16
_cell_volume   906.62457903
_cell_formula_units_Z   16
loop_
 _symmetry_equiv_pos_site_id
 _symmetry_equiv_pos_as_xyz
  1  'x, y, z'
loop_
 _atom_site_type_symbol
 _atom_site_label
 _atom_site_symmetry_multiplicity
 _atom_site_fract_x
 _atom_site_fract_y
 _atom_site_fract_z
 _atom_site_occupancy
  Si  Si0  1  0.00000000  0.47030000  0.08950000  1
  Si  Si1  1  0.50000000  0.97030000  0.58950000  1
  Si  Si2  1  0.27970000  0.25000000  0.83950000  1
  Si  Si3  1  0.77970000  0.75000000  0.33950000  1
  Si  Si4  1  0.50000000  0.52970000  0.58950000  1
  Si  Si5  1  0.00000000  0.02970000  0.08950000  1
  Si  Si6  1  0.22030000  0.75000000  0.33950000  1
  Si  Si7  1  0.72030000  0.25000000  0.83950000  1
  Si  Si8  1  0.00000000  0.52970000  0.91050000  1
  Si  Si9  1  0.50000000  0.02970000  0.41050000  1
  Si  Si10  1  0.72030000  0.75000000  0.16050000  1
  Si  Si11  1  0.22030000  0.25000000  0.66050000  1
  Si  Si12  1  0.50000000  0.47030000  0.41050000  1
  Si  Si13  1  0.00000000  0.97030000  0.91050000  1
  Si  Si14  1  0.77970000  0.25000000  0.66050000  1
  Si  Si15  1  0.27970000  0.75000000  0.16050000  1
