# generated using pymatgen
data_SiO4
_symmetry_space_group_name_H-M   'P 1'
_cell_length_a   18.65300000
_cell_length_b   18.65300000
_cell_length_c   9.44100000
_cell_angle_alpha   90.00000000
_cell_angle_beta   90.00000000
_cell_angle_gamma   90.00000000
_symmetry_Int_Tables_number   1
_chemical_formula_structural   SiO4
_chemical_formula_sum   'Si1 O4'
_cell_volume   3284.84875537
_cell_formula_units_Z   1
loop_
 _symmetry_equiv_pos_site_id
 _symmetry_equiv_pos_as_xyz
  1  'x, y, z'
loop_
 _atom_site_type_symbol
 _atom_site_label
 _atom_site_symmetry_multiplicity
 _atom_site_fract_x
 _atom_site_fract_y
 _atom_site_fract_z
 _atom_site_occupancy
  Si  Si0  1  0.55440000  0.06580000  0.33720000  1
  O  O1  1  0.57960000  0.07960000  0.50000000  1
  O  O2  1  0.50660000  0.13300000  0.28120000  1
  O  O3  1  0.62490000  0.05600000  0.23780000  1
  O  O4  1  0.50760000  -0.00760000  0.33000000  1
