# generated using pymatgen
data_SiO4
_symmetry_space_group_name_H-M   'P 1'
_cell_length_a   18.10200000
_cell_length_b   18.10200000
_cell_length_c   7.61800000
_cell_angle_alpha   90.00000000
_cell_angle_beta   90.00000000
_cell_angle_gamma   120.00000000
_symmetry_Int_Tables_number   1
_chemical_formula_structural   SiO4
_chemical_formula_sum   'Si1 O4'
_cell_volume   2161.84583855
_cell_formula_units_Z   1
loop_
 _symmetry_equiv_pos_site_id
 _symmetry_equiv_pos_as_xyz
  1  'x, y, z'
loop_
 _atom_site_type_symbol
 _atom_site_label
 _atom_site_symmetry_multiplicity
 _atom_site_fract_x
 _atom_site_fract_y
 _atom_site_fract_z
 _atom_site_occupancy
  Si  Si0  1  0.09430000  0.35610000  0.04870000  1
  O  O1  1  0.00000000  0.28010000  0.00000000  1
  O  O2  1  0.11930000  0.43650000  -0.07750000  1
  O  O3  1  0.16200000  0.32390000  0.02270000  1
  O  O4  1  0.09590000  0.38390000  0.25000000  1
