# generated using pymatgen
data_SiO4
_symmetry_space_group_name_H-M   'P 1'
_cell_length_a   18.10200000
_cell_length_b   18.10200000
_cell_length_c   7.61800000
_cell_angle_alpha   90.00000000
_cell_angle_beta   90.00000000
_cell_angle_gamma   120.00000000
_symmetry_Int_Tables_number   1
_chemical_formula_structural   SiO4
_chemical_formula_sum   'Si1 O4'
_cell_volume   2161.84583855
_cell_formula_units_Z   1
loop_
 _symmetry_equiv_pos_site_id
 _symmetry_equiv_pos_as_xyz
  1  'x, y, z'
loop_
 _atom_site_type_symbol
 _atom_site_label
 _atom_site_symmetry_multiplicity
 _atom_site_fract_x
 _atom_site_fract_y
 _atom_site_fract_z
 _atom_site_occupancy
  Si  Si0  1  0.90570000  0.64390000  0.54870000  1
  O  O1  1  1.00000000  0.71990000  0.50000000  1
  O  O2  1  0.88070000  0.56350000  0.42250000  1
  O  O3  1  0.83800000  0.67610000  0.52270000  1
  O  O4  1  0.90410000  0.61610000  0.75000000  1
