# generated using pymatgen
data_O2
_symmetry_space_group_name_H-M   'P 1'
_cell_length_a   18.10200000
_cell_length_b   18.10200000
_cell_length_c   7.61800000
_cell_angle_alpha   90.00000000
_cell_angle_beta   90.00000000
_cell_angle_gamma   120.00000000
_symmetry_Int_Tables_number   1
_chemical_formula_structural   O2
_chemical_formula_sum   O72
_cell_volume   2161.84583855
_cell_formula_units_Z   36
loop_
 _symmetry_equiv_pos_site_id
 _symmetry_equiv_pos_as_xyz
  1  'x, y, z'
loop_
 _atom_site_type_symbol
 _atom_site_label
 _atom_site_symmetry_multiplicity
 _atom_site_fract_x
 _atom_site_fract_y
 _atom_site_fract_z
 _atom_site_occupancy
  O  O0  1  0.00000000  0.28010000  0.00000000  1
  O  O1  1  0.71990000  0.71990000  0.00000000  1
  O  O2  1  0.28010000  0.00000000  0.00000000  1
  O  O3  1  0.00000000  0.71990000  0.50000000  1
  O  O4  1  0.28010000  0.28010000  0.50000000  1
  O  O5  1  0.71990000  0.00000000  0.50000000  1
  O  O6  1  0.71990000  0.00000000  0.00000000  1
  O  O7  1  0.28010000  0.28010000  0.00000000  1
  O  O8  1  0.00000000  0.71990000  0.00000000  1
  O  O9  1  0.28010000  0.00000000  0.50000000  1
  O  O10  1  0.71990000  0.71990000  0.50000000  1
  O  O11  1  0.00000000  0.28010000  0.50000000  1
  O  O12  1  0.11930000  0.43650000  0.92250000  1
  O  O13  1  0.56350000  0.68280000  0.92250000  1
  O  O14  1  0.31720000  0.88070000  0.92250000  1
  O  O15  1  0.88070000  0.56350000  0.42250000  1
  O  O16  1  0.43650000  0.31720000  0.42250000  1
  O  O17  1  0.68280000  0.11930000  0.42250000  1
  O  O18  1  0.56350000  0.88070000  0.92250000  1
  O  O19  1  0.31720000  0.43650000  0.92250000  1
  O  O20  1  0.11930000  0.68280000  0.92250000  1
  O  O21  1  0.43650000  0.11930000  0.42250000  1
  O  O22  1  0.68280000  0.56350000  0.42250000  1
  O  O23  1  0.88070000  0.31720000  0.42250000  1
  O  O24  1  0.88070000  0.56350000  0.07750000  1
  O  O25  1  0.43650000  0.31720000  0.07750000  1
  O  O26  1  0.68280000  0.11930000  0.07750000  1
  O  O27  1  0.11930000  0.43650000  0.57750000  1
  O  O28  1  0.56350000  0.68280000  0.57750000  1
  O  O29  1  0.31720000  0.88070000  0.57750000  1
  O  O30  1  0.43650000  0.11930000  0.07750000  1
  O  O31  1  0.68280000  0.56350000  0.07750000  1
  O  O32  1  0.88070000  0.31720000  0.07750000  1
  O  O33  1  0.56350000  0.88070000  0.57750000  1
  O  O34  1  0.31720000  0.43650000  0.57750000  1
  O  O35  1  0.11930000  0.68280000  0.57750000  1
  O  O36  1  0.16200000  0.32390000  0.02270000  1
  O  O37  1  0.67610000  0.83810000  0.02270000  1
  O  O38  1  0.16190000  0.83800000  0.02270000  1
  O  O39  1  0.83800000  0.67610000  0.52270000  1
  O  O40  1  0.32390000  0.16190000  0.52270000  1
  O  O41  1  0.83810000  0.16200000  0.52270000  1
  O  O42  1  0.83800000  0.67610000  0.97730000  1
  O  O43  1  0.32390000  0.16190000  0.97730000  1
  O  O44  1  0.83810000  0.16200000  0.97730000  1
  O  O45  1  0.16200000  0.32390000  0.47730000  1
  O  O46  1  0.67610000  0.83810000  0.47730000  1
  O  O47  1  0.16190000  0.83800000  0.47730000  1
  O  O48  1  0.09590000  0.38390000  0.25000000  1
  O  O49  1  0.61610000  0.71200000  0.25000000  1
  O  O50  1  0.28800000  0.90410000  0.25000000  1
  O  O51  1  0.90410000  0.61610000  0.75000000  1
  O  O52  1  0.38390000  0.28800000  0.75000000  1
  O  O53  1  0.71200000  0.09590000  0.75000000  1
  O  O54  1  0.61610000  0.90410000  0.25000000  1
  O  O55  1  0.28800000  0.38390000  0.25000000  1
  O  O56  1  0.09590000  0.71200000  0.25000000  1
  O  O57  1  0.38390000  0.09590000  0.75000000  1
  O  O58  1  0.71200000  0.61610000  0.75000000  1
  O  O59  1  0.90410000  0.28800000  0.75000000  1
  O  O60  1  0.52630000  0.26310000  0.25000000  1
  O  O61  1  0.73690000  0.26320000  0.25000000  1
  O  O62  1  0.73680000  0.47370000  0.25000000  1
  O  O63  1  0.47370000  0.73690000  0.75000000  1
  O  O64  1  0.26310000  0.73680000  0.75000000  1
  O  O65  1  0.26320000  0.52630000  0.75000000  1
  O  O66  1  0.57360000  0.14730000  0.25000000  1
  O  O67  1  0.85270000  0.42630000  0.25000000  1
  O  O68  1  0.57370000  0.42640000  0.25000000  1
  O  O69  1  0.42640000  0.85270000  0.75000000  1
  O  O70  1  0.14730000  0.57370000  0.75000000  1
  O  O71  1  0.42630000  0.57360000  0.75000000  1
