# generated using pymatgen
data_SiO4
_symmetry_space_group_name_H-M   'P 1'
_cell_length_a   12.27900000
_cell_length_b   12.27900000
_cell_length_c   30.86900000
_cell_angle_alpha   90.00000000
_cell_angle_beta   90.00000000
_cell_angle_gamma   120.00000000
_symmetry_Int_Tables_number   1
_chemical_formula_structural   SiO4
_chemical_formula_sum   'Si1 O4'
_cell_volume   4030.68808157
_cell_formula_units_Z   1
loop_
 _symmetry_equiv_pos_site_id
 _symmetry_equiv_pos_as_xyz
  1  'x, y, z'
loop_
 _atom_site_type_symbol
 _atom_site_label
 _atom_site_symmetry_multiplicity
 _atom_site_fract_x
 _atom_site_fract_y
 _atom_site_fract_z
 _atom_site_occupancy
  Si  Si0  1  0.41180000  0.33530000  0.75480000  1
  O  O1  1  0.36240000  0.34100000  0.70700000  1
  O  O2  1  0.40120000  0.20060000  0.76180000  1
  O  O3  1  0.55620000  0.44380000  0.76040000  1
  O  O4  1  0.32670000  0.35090000  0.79130000  1
