# generated using pymatgen
data_SiO4
_symmetry_space_group_name_H-M   'P 1'
_cell_length_a   12.27900000
_cell_length_b   12.27900000
_cell_length_c   30.86900000
_cell_angle_alpha   90.00000000
_cell_angle_beta   90.00000000
_cell_angle_gamma   120.00000000
_symmetry_Int_Tables_number   1
_chemical_formula_structural   SiO4
_chemical_formula_sum   'Si1 O4'
_cell_volume   4030.68808157
_cell_formula_units_Z   1
loop_
 _symmetry_equiv_pos_site_id
 _symmetry_equiv_pos_as_xyz
  1  'x, y, z'
loop_
 _atom_site_type_symbol
 _atom_site_label
 _atom_site_symmetry_multiplicity
 _atom_site_fract_x
 _atom_site_fract_y
 _atom_site_fract_z
 _atom_site_occupancy
  Si  Si0  1  0.59020000  0.67030000  0.08750000  1
  O  O1  1  0.68830000  0.67710000  0.12350000  1
  O  O2  1  0.55350000  0.77670000  0.09720000  1
  O  O3  1  0.46650000  0.53360000  0.08920000  1
  O  O4  1  0.65310000  0.69330000  0.04020000  1
