# generated using pymatgen
data_SiO4
_symmetry_space_group_name_H-M   'P 1'
_cell_length_a   12.27900000
_cell_length_b   12.27900000
_cell_length_c   30.86900000
_cell_angle_alpha   90.00000000
_cell_angle_beta   90.00000000
_cell_angle_gamma   120.00000000
_symmetry_Int_Tables_number   1
_chemical_formula_structural   SiO4
_chemical_formula_sum   'Si1 O4'
_cell_volume   4030.68808157
_cell_formula_units_Z   1
loop_
 _symmetry_equiv_pos_site_id
 _symmetry_equiv_pos_as_xyz
  1  'x, y, z'
loop_
 _atom_site_type_symbol
 _atom_site_label
 _atom_site_symmetry_multiplicity
 _atom_site_fract_x
 _atom_site_fract_y
 _atom_site_fract_z
 _atom_site_occupancy
  Si  Si0  1  0.41240000  0.08230000  0.41270000  1
  O  O1  1  0.30980000  0.00440000  0.37580000  1
  O  O2  1  0.45980000  0.22990000  0.40730000  1
  O  O3  1  0.52900000  0.05810000  0.40810000  1
  O  O4  1  0.34750000  0.03570000  0.45950000  1
