# generated using pymatgen
data_Si
_symmetry_space_group_name_H-M   'P 1'
_cell_length_a   12.27900000
_cell_length_b   12.27900000
_cell_length_c   30.86900000
_cell_angle_alpha   90.00000000
_cell_angle_beta   90.00000000
_cell_angle_gamma   120.00000000
_symmetry_Int_Tables_number   1
_chemical_formula_structural   Si
_chemical_formula_sum   Si72
_cell_volume   4030.68808157
_cell_formula_units_Z   72
loop_
 _symmetry_equiv_pos_site_id
 _symmetry_equiv_pos_as_xyz
  1  'x, y, z'
loop_
 _atom_site_type_symbol
 _atom_site_label
 _atom_site_symmetry_multiplicity
 _atom_site_fract_x
 _atom_site_fract_y
 _atom_site_fract_z
 _atom_site_occupancy
  Si  Si0  1  0.74400000  0.00010000  0.67210000  1
  Si  Si1  1  0.99990000  0.74390000  0.67210000  1
  Si  Si2  1  0.25610000  0.25600000  0.67210000  1
  Si  Si3  1  0.99990000  0.25600000  0.67210000  1
  Si  Si4  1  0.25610000  0.00010000  0.67210000  1
  Si  Si5  1  0.74400000  0.74390000  0.67210000  1
  Si  Si6  1  0.25600000  0.99990000  0.32790000  1
  Si  Si7  1  0.00010000  0.25610000  0.32790000  1
  Si  Si8  1  0.74390000  0.74400000  0.32790000  1
  Si  Si9  1  0.00010000  0.74400000  0.32790000  1
  Si  Si10  1  0.74390000  0.99990000  0.32790000  1
  Si  Si11  1  0.25600000  0.25610000  0.32790000  1
  Si  Si12  1  0.41180000  0.07650000  0.75480000  1
  Si  Si13  1  0.92350000  0.33530000  0.75480000  1
  Si  Si14  1  0.66470000  0.58820000  0.75480000  1
  Si  Si15  1  0.92350000  0.58820000  0.75480000  1
  Si  Si16  1  0.66470000  0.07650000  0.75480000  1
  Si  Si17  1  0.41180000  0.33530000  0.75480000  1
  Si  Si18  1  0.58820000  0.92350000  0.24520000  1
  Si  Si19  1  0.07650000  0.66470000  0.24520000  1
  Si  Si20  1  0.33530000  0.41180000  0.24520000  1
  Si  Si21  1  0.07650000  0.41180000  0.24520000  1
  Si  Si22  1  0.33530000  0.92350000  0.24520000  1
  Si  Si23  1  0.58820000  0.66470000  0.24520000  1
  Si  Si24  1  0.25340000  0.25610000  0.83070000  1
  Si  Si25  1  0.74390000  0.99730000  0.83070000  1
  Si  Si26  1  0.00270000  0.74660000  0.83070000  1
  Si  Si27  1  0.74390000  0.74660000  0.83070000  1
  Si  Si28  1  0.00270000  0.25610000  0.83070000  1
  Si  Si29  1  0.25340000  0.99730000  0.83070000  1
  Si  Si30  1  0.74660000  0.74390000  0.16930000  1
  Si  Si31  1  0.25610000  0.00270000  0.16930000  1
  Si  Si32  1  0.99730000  0.25340000  0.16930000  1
  Si  Si33  1  0.25610000  0.25340000  0.16930000  1
  Si  Si34  1  0.99730000  0.74390000  0.16930000  1
  Si  Si35  1  0.74660000  0.00270000  0.16930000  1
  Si  Si36  1  0.40980000  0.08010000  0.91250000  1
  Si  Si37  1  0.91990000  0.32970000  0.91250000  1
  Si  Si38  1  0.67030000  0.59020000  0.91250000  1
  Si  Si39  1  0.91990000  0.59020000  0.91250000  1
  Si  Si40  1  0.67030000  0.08010000  0.91250000  1
  Si  Si41  1  0.40980000  0.32970000  0.91250000  1
  Si  Si42  1  0.59020000  0.91990000  0.08750000  1
  Si  Si43  1  0.08010000  0.67030000  0.08750000  1
  Si  Si44  1  0.32970000  0.40980000  0.08750000  1
  Si  Si45  1  0.08010000  0.40980000  0.08750000  1
  Si  Si46  1  0.32970000  0.91990000  0.08750000  1
  Si  Si47  1  0.59020000  0.67030000  0.08750000  1
  Si  Si48  1  0.41240000  0.08230000  0.41270000  1
  Si  Si49  1  0.91770000  0.33010000  0.41270000  1
  Si  Si50  1  0.66990000  0.58760000  0.41270000  1
  Si  Si51  1  0.91770000  0.58760000  0.41270000  1
  Si  Si52  1  0.66990000  0.08230000  0.41270000  1
  Si  Si53  1  0.41240000  0.33010000  0.41270000  1
  Si  Si54  1  0.58760000  0.91770000  0.58730000  1
  Si  Si55  1  0.08230000  0.66990000  0.58730000  1
  Si  Si56  1  0.33010000  0.41240000  0.58730000  1
  Si  Si57  1  0.08230000  0.41240000  0.58730000  1
  Si  Si58  1  0.33010000  0.91770000  0.58730000  1
  Si  Si59  1  0.58760000  0.66990000  0.58730000  1
  Si  Si60  1  0.74670000  0.00000000  0.50000000  1
  Si  Si61  1  0.00000000  0.74670000  0.50000000  1
  Si  Si62  1  0.25330000  0.25330000  0.50000000  1
  Si  Si63  1  0.00000000  0.25330000  0.50000000  1
  Si  Si64  1  0.25330000  0.00000000  0.50000000  1
  Si  Si65  1  0.74670000  0.74670000  0.50000000  1
  Si  Si66  1  0.25090000  0.25090000  0.00000000  1
  Si  Si67  1  0.74910000  0.00000000  0.00000000  1
  Si  Si68  1  0.00000000  0.74910000  0.00000000  1
  Si  Si69  1  0.74910000  0.74910000  0.00000000  1
  Si  Si70  1  0.00000000  0.25090000  0.00000000  1
  Si  Si71  1  0.25090000  0.00000000  0.00000000  1
