# generated using pymatgen
data_O2
_symmetry_space_group_name_H-M   'P 1'
_cell_length_a   12.27900000
_cell_length_b   12.27900000
_cell_length_c   30.86900000
_cell_angle_alpha   90.00000000
_cell_angle_beta   90.00000000
_cell_angle_gamma   120.00000000
_symmetry_Int_Tables_number   1
_chemical_formula_structural   O2
_chemical_formula_sum   O150
_cell_volume   4030.68808157
_cell_formula_units_Z   75
loop_
 _symmetry_equiv_pos_site_id
 _symmetry_equiv_pos_as_xyz
  1  'x, y, z'
loop_
 _atom_site_type_symbol
 _atom_site_label
 _atom_site_symmetry_multiplicity
 _atom_site_fract_x
 _atom_site_fract_y
 _atom_site_fract_z
 _atom_site_occupancy
  O  O0  1  0.69020000  0.99560000  0.62420000  1
  O  O1  1  0.00440000  0.69460000  0.62420000  1
  O  O2  1  0.30540000  0.30980000  0.62420000  1
  O  O3  1  0.00440000  0.30980000  0.62420000  1
  O  O4  1  0.30540000  0.99560000  0.62420000  1
  O  O5  1  0.69020000  0.69460000  0.62420000  1
  O  O6  1  0.30980000  0.00440000  0.37580000  1
  O  O7  1  0.99560000  0.30540000  0.37580000  1
  O  O8  1  0.69460000  0.69020000  0.37580000  1
  O  O9  1  0.99560000  0.69020000  0.37580000  1
  O  O10  1  0.69460000  0.00440000  0.37580000  1
  O  O11  1  0.30980000  0.30540000  0.37580000  1
  O  O12  1  0.88750000  0.11250000  0.67530000  1
  O  O13  1  0.88750000  0.77500000  0.67530000  1
  O  O14  1  0.22500000  0.11250000  0.67530000  1
  O  O15  1  0.11250000  0.88750000  0.32470000  1
  O  O16  1  0.11250000  0.22500000  0.32470000  1
  O  O17  1  0.77500000  0.88750000  0.32470000  1
  O  O18  1  0.65900000  0.02140000  0.70700000  1
  O  O19  1  0.97860000  0.63760000  0.70700000  1
  O  O20  1  0.36240000  0.34100000  0.70700000  1
  O  O21  1  0.97860000  0.34100000  0.70700000  1
  O  O22  1  0.36240000  0.02140000  0.70700000  1
  O  O23  1  0.65900000  0.63760000  0.70700000  1
  O  O24  1  0.34100000  0.97860000  0.29300000  1
  O  O25  1  0.02140000  0.36240000  0.29300000  1
  O  O26  1  0.63760000  0.65900000  0.29300000  1
  O  O27  1  0.02140000  0.65900000  0.29300000  1
  O  O28  1  0.63760000  0.97860000  0.29300000  1
  O  O29  1  0.34100000  0.36240000  0.29300000  1
  O  O30  1  0.73770000  0.86890000  0.68270000  1
  O  O31  1  0.13110000  0.86880000  0.68270000  1
  O  O32  1  0.13120000  0.26230000  0.68270000  1
  O  O33  1  0.26230000  0.13110000  0.31730000  1
  O  O34  1  0.86890000  0.13120000  0.31730000  1
  O  O35  1  0.86880000  0.73770000  0.31730000  1
  O  O36  1  0.40120000  0.20060000  0.76180000  1
  O  O37  1  0.79940000  0.20060000  0.76180000  1
  O  O38  1  0.79940000  0.59880000  0.76180000  1
  O  O39  1  0.59880000  0.79940000  0.23820000  1
  O  O40  1  0.20060000  0.79940000  0.23820000  1
  O  O41  1  0.20060000  0.40120000  0.23820000  1
  O  O42  1  0.55620000  0.11240000  0.76040000  1
  O  O43  1  0.88760000  0.44380000  0.76040000  1
  O  O44  1  0.55620000  0.44380000  0.76040000  1
  O  O45  1  0.44380000  0.88760000  0.23960000  1
  O  O46  1  0.11240000  0.55620000  0.23960000  1
  O  O47  1  0.44380000  0.55620000  0.23960000  1
  O  O48  1  0.32670000  0.97580000  0.79130000  1
  O  O49  1  0.02420000  0.35090000  0.79130000  1
  O  O50  1  0.64910000  0.67330000  0.79130000  1
  O  O51  1  0.02420000  0.67330000  0.79130000  1
  O  O52  1  0.64910000  0.97580000  0.79130000  1
  O  O53  1  0.32670000  0.35090000  0.79130000  1
  O  O54  1  0.67330000  0.02420000  0.20870000  1
  O  O55  1  0.97580000  0.64910000  0.20870000  1
  O  O56  1  0.35090000  0.32670000  0.20870000  1
  O  O57  1  0.97580000  0.32670000  0.20870000  1
  O  O58  1  0.35090000  0.02420000  0.20870000  1
  O  O59  1  0.67330000  0.64910000  0.20870000  1
  O  O60  1  0.27080000  0.13540000  0.82560000  1
  O  O61  1  0.86460000  0.13540000  0.82560000  1
  O  O62  1  0.86460000  0.72920000  0.82560000  1
  O  O63  1  0.72920000  0.86460000  0.17440000  1
  O  O64  1  0.13540000  0.86460000  0.17440000  1
  O  O65  1  0.13540000  0.27080000  0.17440000  1
  O  O66  1  0.10620000  0.21250000  0.82880000  1
  O  O67  1  0.78750000  0.89370000  0.82880000  1
  O  O68  1  0.10630000  0.89380000  0.82880000  1
  O  O69  1  0.89380000  0.78750000  0.17120000  1
  O  O70  1  0.21250000  0.10630000  0.17120000  1
  O  O71  1  0.89370000  0.10620000  0.17120000  1
  O  O72  1  0.31170000  0.32290000  0.87650000  1
  O  O73  1  0.67710000  0.98880000  0.87650000  1
  O  O74  1  0.01120000  0.68830000  0.87650000  1
  O  O75  1  0.67710000  0.68830000  0.87650000  1
  O  O76  1  0.01120000  0.32290000  0.87650000  1
  O  O77  1  0.31170000  0.98880000  0.87650000  1
  O  O78  1  0.68830000  0.67710000  0.12350000  1
  O  O79  1  0.32290000  0.01120000  0.12350000  1
  O  O80  1  0.98880000  0.31170000  0.12350000  1
  O  O81  1  0.32290000  0.31170000  0.12350000  1
  O  O82  1  0.98880000  0.67710000  0.12350000  1
  O  O83  1  0.68830000  0.01120000  0.12350000  1
  O  O84  1  0.44650000  0.22330000  0.90280000  1
  O  O85  1  0.77670000  0.22320000  0.90280000  1
  O  O86  1  0.77680000  0.55350000  0.90280000  1
  O  O87  1  0.55350000  0.77670000  0.09720000  1
  O  O88  1  0.22330000  0.77680000  0.09720000  1
  O  O89  1  0.22320000  0.44650000  0.09720000  1
  O  O90  1  0.53350000  0.06710000  0.91080000  1
  O  O91  1  0.93290000  0.46640000  0.91080000  1
  O  O92  1  0.53360000  0.46650000  0.91080000  1
  O  O93  1  0.93290000  0.46650000  0.91080000  1
  O  O94  1  0.53360000  0.06710000  0.91080000  1
  O  O95  1  0.53350000  0.46640000  0.91080000  1
  O  O96  1  0.46650000  0.93290000  0.08920000  1
  O  O97  1  0.06710000  0.53360000  0.08920000  1
  O  O98  1  0.46640000  0.53350000  0.08920000  1
  O  O99  1  0.06710000  0.53350000  0.08920000  1
  O  O100  1  0.46640000  0.93290000  0.08920000  1
  O  O101  1  0.46650000  0.53360000  0.08920000  1
  O  O102  1  0.34690000  0.04020000  0.95980000  1
  O  O103  1  0.95980000  0.30670000  0.95980000  1
  O  O104  1  0.69330000  0.65310000  0.95980000  1
  O  O105  1  0.95980000  0.65310000  0.95980000  1
  O  O106  1  0.69330000  0.04020000  0.95980000  1
  O  O107  1  0.34690000  0.30670000  0.95980000  1
  O  O108  1  0.65310000  0.95980000  0.04020000  1
  O  O109  1  0.04020000  0.69330000  0.04020000  1
  O  O110  1  0.30670000  0.34690000  0.04020000  1
  O  O111  1  0.04020000  0.34690000  0.04020000  1
  O  O112  1  0.30670000  0.95980000  0.04020000  1
  O  O113  1  0.65310000  0.69330000  0.04020000  1
  O  O114  1  0.23370000  0.11680000  0.01390000  1
  O  O115  1  0.88320000  0.11690000  0.01390000  1
  O  O116  1  0.88310000  0.76630000  0.01390000  1
  O  O117  1  0.76630000  0.88320000  0.98610000  1
  O  O118  1  0.11680000  0.88310000  0.98610000  1
  O  O119  1  0.11690000  0.23370000  0.98610000  1
  O  O120  1  0.45980000  0.22990000  0.40730000  1
  O  O121  1  0.77010000  0.22990000  0.40730000  1
  O  O122  1  0.77010000  0.54020000  0.40730000  1
  O  O123  1  0.54020000  0.77010000  0.59270000  1
  O  O124  1  0.22990000  0.77010000  0.59270000  1
  O  O125  1  0.22990000  0.45980000  0.59270000  1
  O  O126  1  0.52900000  0.05810000  0.40810000  1
  O  O127  1  0.94190000  0.47090000  0.40810000  1
  O  O128  1  0.52910000  0.47100000  0.40810000  1
  O  O129  1  0.47100000  0.94190000  0.59190000  1
  O  O130  1  0.05810000  0.52910000  0.59190000  1
  O  O131  1  0.47090000  0.52900000  0.59190000  1
  O  O132  1  0.34750000  0.03570000  0.45950000  1
  O  O133  1  0.96430000  0.31180000  0.45950000  1
  O  O134  1  0.68820000  0.65250000  0.45950000  1
  O  O135  1  0.96430000  0.65250000  0.45950000  1
  O  O136  1  0.68820000  0.03570000  0.45950000  1
  O  O137  1  0.34750000  0.31180000  0.45950000  1
  O  O138  1  0.65250000  0.96430000  0.54050000  1
  O  O139  1  0.03570000  0.68820000  0.54050000  1
  O  O140  1  0.31180000  0.34750000  0.54050000  1
  O  O141  1  0.03570000  0.34750000  0.54050000  1
  O  O142  1  0.31180000  0.96430000  0.54050000  1
  O  O143  1  0.65250000  0.68820000  0.54050000  1
  O  O144  1  0.88160000  0.11840000  0.51230000  1
  O  O145  1  0.88160000  0.76320000  0.51230000  1
  O  O146  1  0.23680000  0.11840000  0.51230000  1
  O  O147  1  0.11840000  0.88160000  0.48770000  1
  O  O148  1  0.11840000  0.23680000  0.48770000  1
  O  O149  1  0.76320000  0.88160000  0.48770000  1
