# generated using pymatgen
data_SiO4
_symmetry_space_group_name_H-M   'P 1'
_cell_length_a   35.62200000
_cell_length_b   35.62200000
_cell_length_c   35.62200000
_cell_angle_alpha   90.00000000
_cell_angle_beta   90.00000000
_cell_angle_gamma   90.00000000
_symmetry_Int_Tables_number   1
_chemical_formula_structural   SiO4
_chemical_formula_sum   'Si1 O4'
_cell_volume   45201.71346185
_cell_formula_units_Z   1
loop_
 _symmetry_equiv_pos_site_id
 _symmetry_equiv_pos_as_xyz
  1  'x, y, z'
loop_
 _atom_site_type_symbol
 _atom_site_label
 _atom_site_symmetry_multiplicity
 _atom_site_fract_x
 _atom_site_fract_y
 _atom_site_fract_z
 _atom_site_occupancy
  Si  Si0  1  0.25230000  0.43620000  0.87500000  1
  O  O1  1  0.28710000  0.46290000  0.88600000  1
  O  O2  1  0.26400000  0.40980000  0.84020000  1
  O  O3  1  0.21690000  0.46180000  0.86330000  1
  O  O4  1  0.24130000  0.41040000  0.91040000  1
