# generated using pymatgen
data_O2
_symmetry_space_group_name_H-M   'P 1'
_cell_length_a   20.76535000
_cell_length_b   13.90475000
_cell_length_c   12.40021000
_cell_angle_alpha   90.00000000
_cell_angle_beta   101.32000000
_cell_angle_gamma   90.00000000
_symmetry_Int_Tables_number   1
_chemical_formula_structural   O2
_chemical_formula_sum   O128
_cell_volume   3510.74706776
_cell_formula_units_Z   64
loop_
 _symmetry_equiv_pos_site_id
 _symmetry_equiv_pos_as_xyz
  1  'x, y, z'
loop_
 _atom_site_type_symbol
 _atom_site_label
 _atom_site_symmetry_multiplicity
 _atom_site_fract_x
 _atom_site_fract_y
 _atom_site_fract_z
 _atom_site_occupancy
  O  O0  1  0.50000000  0.37018000  0.00000000  1
  O  O1  1  0.50000000  0.62982000  0.00000000  1
  O  O2  1  0.51726000  0.50000000  0.15807000  1
  O  O3  1  0.48274000  0.50000000  0.84193000  1
  O  O4  1  0.44997000  0.34076000  0.17698000  1
  O  O5  1  0.44997000  0.65924000  0.17698000  1
  O  O6  1  0.55003000  0.65924000  0.82302000  1
  O  O7  1  0.55003000  0.34076000  0.82302000  1
  O  O8  1  0.35896000  0.23763000  0.04926000  1
  O  O9  1  0.35896000  0.76237000  0.04926000  1
  O  O10  1  0.64104000  0.76237000  0.95074000  1
  O  O11  1  0.64104000  0.23763000  0.95074000  1
  O  O12  1  0.33164000  0.40492000  0.12550000  1
  O  O13  1  0.33164000  0.59508000  0.12550000  1
  O  O14  1  0.66836000  0.59508000  0.87450000  1
  O  O15  1  0.66836000  0.40492000  0.87450000  1
  O  O16  1  0.35289000  0.25396000  0.25630000  1
  O  O17  1  0.35289000  0.74604000  0.25630000  1
  O  O18  1  0.64711000  0.74604000  0.74370000  1
  O  O19  1  0.64711000  0.25396000  0.74370000  1
  O  O20  1  0.22548000  0.26430000  0.24806000  1
  O  O21  1  0.22548000  0.73570000  0.24806000  1
  O  O22  1  0.77452000  0.73570000  0.75194000  1
  O  O23  1  0.77452000  0.26430000  0.75194000  1
  O  O24  1  0.30518000  0.21948000  0.43225000  1
  O  O25  1  0.30518000  0.78052000  0.43225000  1
  O  O26  1  0.69482000  0.78052000  0.56775000  1
  O  O27  1  0.69482000  0.21948000  0.56775000  1
  O  O28  1  0.28407000  0.09508000  0.26965000  1
  O  O29  1  0.28407000  0.90492000  0.26965000  1
  O  O30  1  0.71593000  0.90492000  0.73035000  1
  O  O31  1  0.71593000  0.09508000  0.73035000  1
  O  O32  1  0.22089000  0.00000000  0.09839000  1
  O  O33  1  0.77911000  0.00000000  0.90161000  1
  O  O34  1  0.17581000  0.00000000  0.28102000  1
  O  O35  1  0.82419000  0.00000000  0.71898000  1
  O  O36  1  0.33102000  0.27564000  0.63860000  1
  O  O37  1  0.33102000  0.72436000  0.63860000  1
  O  O38  1  0.66898000  0.72436000  0.36140000  1
  O  O39  1  0.66898000  0.27564000  0.36140000  1
  O  O40  1  0.20931000  0.23112000  0.54135000  1
  O  O41  1  0.20931000  0.76888000  0.54135000  1
  O  O42  1  0.79069000  0.76888000  0.45865000  1
  O  O43  1  0.79069000  0.23112000  0.45865000  1
  O  O44  1  0.29821000  0.09538000  0.58820000  1
  O  O45  1  0.29821000  0.90462000  0.58820000  1
  O  O46  1  0.70179000  0.90462000  0.41180000  1
  O  O47  1  0.70179000  0.09538000  0.41180000  1
  O  O48  1  0.19244000  0.00000000  0.49667000  1
  O  O49  1  0.80756000  0.00000000  0.50333000  1
  O  O50  1  0.22997000  0.00000000  0.71048000  1
  O  O51  1  0.77003000  0.00000000  0.28952000  1
  O  O52  1  0.11994000  0.09426000  0.70532000  1
  O  O53  1  0.11994000  0.90574000  0.70532000  1
  O  O54  1  0.88006000  0.90574000  0.29468000  1
  O  O55  1  0.88006000  0.09426000  0.29468000  1
  O  O56  1  0.17584000  0.00000000  0.88438000  1
  O  O57  1  0.82416000  0.00000000  0.11562000  1
  O  O58  1  0.11946000  0.27749000  0.65638000  1
  O  O59  1  0.11946000  0.72251000  0.65638000  1
  O  O60  1  0.88054000  0.72251000  0.34362000  1
  O  O61  1  0.88054000  0.27749000  0.34362000  1
  O  O62  1  0.01312000  0.19601000  0.70127000  1
  O  O63  1  0.01312000  0.80399000  0.70127000  1
  O  O64  1  0.98688000  0.80399000  0.29873000  1
  O  O65  1  0.98688000  0.19601000  0.29873000  1
  O  O66  1  0.08625000  0.26926000  0.44044000  1
  O  O67  1  0.08625000  0.73074000  0.44044000  1
  O  O68  1  0.91375000  0.73074000  0.55956000  1
  O  O69  1  0.91375000  0.26926000  0.55956000  1
  O  O70  1  0.16042000  0.40618000  0.52979000  1
  O  O71  1  0.16042000  0.59382000  0.52979000  1
  O  O72  1  0.83958000  0.59382000  0.47021000  1
  O  O73  1  0.83958000  0.40618000  0.47021000  1
  O  O74  1  0.26797000  0.50000000  0.60045000  1
  O  O75  1  0.73203000  0.50000000  0.39955000  1
  O  O76  1  0.31125000  0.40484000  0.78492000  1
  O  O77  1  0.31125000  0.59516000  0.78492000  1
  O  O78  1  0.68875000  0.59516000  0.21508000  1
  O  O79  1  0.68875000  0.40484000  0.21508000  1
  O  O80  1  0.20201000  0.50000000  0.76263000  1
  O  O81  1  0.79799000  0.50000000  0.23737000  1
  O  O82  1  0.23558000  0.50000000  0.18179000  1
  O  O83  1  0.76442000  0.50000000  0.81821000  1
  O  O84  1  0.25024000  0.50000000  0.97416000  1
  O  O85  1  0.74976000  0.50000000  0.02584000  1
  O  O86  1  0.90033000  0.22699000  0.76284000  1
  O  O87  1  0.90033000  0.77301000  0.76284000  1
  O  O88  1  0.09967000  0.77301000  0.23716000  1
  O  O89  1  0.09967000  0.22699000  0.23716000  1
  O  O90  1  0.14274000  0.40437000  0.89896000  1
  O  O91  1  0.14274000  0.59563000  0.89896000  1
  O  O92  1  0.85726000  0.59563000  0.10104000  1
  O  O93  1  0.85726000  0.40437000  0.10104000  1
  O  O94  1  0.23627000  0.27283000  0.95288000  1
  O  O95  1  0.23627000  0.72717000  0.95288000  1
  O  O96  1  0.76373000  0.72717000  0.04712000  1
  O  O97  1  0.76373000  0.27283000  0.04712000  1
  O  O98  1  0.14035000  0.28699000  0.06265000  1
  O  O99  1  0.14035000  0.71301000  0.06265000  1
  O  O100  1  0.85965000  0.71301000  0.93735000  1
  O  O101  1  0.85965000  0.28699000  0.93735000  1
  O  O102  1  0.13776000  0.40458000  0.22920000  1
  O  O103  1  0.13776000  0.59542000  0.22920000  1
  O  O104  1  0.86224000  0.59542000  0.77080000  1
  O  O105  1  0.86224000  0.40458000  0.77080000  1
  O  O106  1  0.21699000  0.50000000  0.38630000  1
  O  O107  1  0.78301000  0.50000000  0.61370000  1
  O  O108  1  0.32454000  0.22229000  0.83746000  1
  O  O109  1  0.32454000  0.77771000  0.83746000  1
  O  O110  1  0.67546000  0.77771000  0.16254000  1
  O  O111  1  0.67546000  0.22229000  0.16254000  1
  O  O112  1  0.28316000  0.09475000  0.96582000  1
  O  O113  1  0.28316000  0.90525000  0.96582000  1
  O  O114  1  0.71684000  0.90525000  0.03418000  1
  O  O115  1  0.71684000  0.09475000  0.03418000  1
  O  O116  1  0.11640000  0.22247000  0.85904000  1
  O  O117  1  0.11640000  0.77753000  0.85904000  1
  O  O118  1  0.88360000  0.77753000  0.14096000  1
  O  O119  1  0.88360000  0.22247000  0.14096000  1
  O  O120  1  0.90768000  0.09281000  0.61970000  1
  O  O121  1  0.90768000  0.90719000  0.61970000  1
  O  O122  1  0.09232000  0.90719000  0.38030000  1
  O  O123  1  0.09232000  0.09281000  0.38030000  1
  O  O124  1  0.42578000  0.32828000  0.80802000  1
  O  O125  1  0.42578000  0.67172000  0.80802000  1
  O  O126  1  0.57422000  0.67172000  0.19198000  1
  O  O127  1  0.57422000  0.32828000  0.19198000  1
