# generated using pymatgen
data_Si
_symmetry_space_group_name_H-M   'P 1'
_cell_length_a   20.76535000
_cell_length_b   13.90475000
_cell_length_c   12.40021000
_cell_angle_alpha   90.00000000
_cell_angle_beta   101.32000000
_cell_angle_gamma   90.00000000
_symmetry_Int_Tables_number   1
_chemical_formula_structural   Si
_chemical_formula_sum   Si64
_cell_volume   3510.74706776
_cell_formula_units_Z   64
loop_
 _symmetry_equiv_pos_site_id
 _symmetry_equiv_pos_as_xyz
  1  'x, y, z'
loop_
 _atom_site_type_symbol
 _atom_site_label
 _atom_site_symmetry_multiplicity
 _atom_site_fract_x
 _atom_site_fract_y
 _atom_site_fract_z
 _atom_site_occupancy
  Si  Si0  1  0.51046000  0.38682000  0.13071000  1
  Si  Si1  1  0.51046000  0.61318000  0.13071000  1
  Si  Si2  1  0.48954000  0.61318000  0.86929000  1
  Si  Si3  1  0.48954000  0.38682000  0.86929000  1
  Si  Si4  1  0.37412000  0.30830000  0.15406000  1
  Si  Si5  1  0.37412000  0.69170000  0.15406000  1
  Si  Si6  1  0.62588000  0.69170000  0.84594000  1
  Si  Si7  1  0.62588000  0.30830000  0.84594000  1
  Si  Si8  1  0.29182000  0.20756000  0.30052000  1
  Si  Si9  1  0.29182000  0.79244000  0.30052000  1
  Si  Si10  1  0.70818000  0.79244000  0.69948000  1
  Si  Si11  1  0.70818000  0.20756000  0.69948000  1
  Si  Si12  1  0.28592000  0.20602000  0.55096000  1
  Si  Si13  1  0.28592000  0.79398000  0.55096000  1
  Si  Si14  1  0.71408000  0.79398000  0.44904000  1
  Si  Si15  1  0.71408000  0.20602000  0.44904000  1
  Si  Si16  1  0.09205000  0.19815000  0.73055000  1
  Si  Si17  1  0.09205000  0.80185000  0.73055000  1
  Si  Si18  1  0.90795000  0.80185000  0.26945000  1
  Si  Si19  1  0.90795000  0.19815000  0.26945000  1
  Si  Si20  1  0.14451000  0.29407000  0.54287000  1
  Si  Si21  1  0.14451000  0.70593000  0.54287000  1
  Si  Si22  1  0.85549000  0.70593000  0.45713000  1
  Si  Si23  1  0.85549000  0.29407000  0.45713000  1
  Si  Si24  1  0.15952000  0.29660000  0.94351000  1
  Si  Si25  1  0.15952000  0.70340000  0.94351000  1
  Si  Si26  1  0.84048000  0.70340000  0.05649000  1
  Si  Si27  1  0.84048000  0.29660000  0.05649000  1
  Si  Si28  1  0.15164000  0.29602000  0.19440000  1
  Si  Si29  1  0.15164000  0.70398000  0.19440000  1
  Si  Si30  1  0.84836000  0.70398000  0.80560000  1
  Si  Si31  1  0.84836000  0.29602000  0.80560000  1
  Si  Si32  1  0.29959000  0.20651000  0.95126000  1
  Si  Si33  1  0.29959000  0.79349000  0.95126000  1
  Si  Si34  1  0.70041000  0.79349000  0.04874000  1
  Si  Si35  1  0.70041000  0.20651000  0.04874000  1
  Si  Si36  1  0.34879000  0.30682000  0.76604000  1
  Si  Si37  1  0.34879000  0.69318000  0.76604000  1
  Si  Si38  1  0.65121000  0.69318000  0.23396000  1
  Si  Si39  1  0.65121000  0.30682000  0.23396000  1
  Si  Si40  1  0.93462000  0.19732000  0.66209000  1
  Si  Si41  1  0.93462000  0.80268000  0.66209000  1
  Si  Si42  1  0.06538000  0.80268000  0.33791000  1
  Si  Si43  1  0.06538000  0.19732000  0.33791000  1
  Si  Si44  1  0.20140000  0.50000000  0.50834000  1
  Si  Si45  1  0.79860000  0.50000000  0.49166000  1
  Si  Si46  1  0.27392000  0.50000000  0.73191000  1
  Si  Si47  1  0.72608000  0.50000000  0.26809000  1
  Si  Si48  1  0.28729000  0.50000000  0.10089000  1
  Si  Si49  1  0.71271000  0.50000000  0.89911000  1
  Si  Si50  1  0.18157000  0.50000000  0.25860000  1
  Si  Si51  1  0.81843000  0.50000000  0.74140000  1
  Si  Si52  1  0.18341000  0.50000000  0.88283000  1
  Si  Si53  1  0.81659000  0.50000000  0.11717000  1
  Si  Si54  1  0.24157000  0.00000000  0.23053000  1
  Si  Si55  1  0.75843000  0.00000000  0.76947000  1
  Si  Si56  1  0.25536000  0.00000000  0.59580000  1
  Si  Si57  1  0.74464000  0.00000000  0.40420000  1
  Si  Si58  1  0.16114000  0.00000000  0.75192000  1
  Si  Si59  1  0.83886000  0.00000000  0.24808000  1
  Si  Si60  1  0.24100000  0.00000000  0.97950000  1
  Si  Si61  1  0.75900000  0.00000000  0.02050000  1
  Si  Si62  1  0.86104000  0.00000000  0.61632000  1
  Si  Si63  1  0.13896000  0.00000000  0.38368000  1
