# generated using pymatgen
data_SiO4
_symmetry_space_group_name_H-M   'P 1'
_cell_length_a   20.76535000
_cell_length_b   13.90475000
_cell_length_c   12.40021000
_cell_angle_alpha   90.00000000
_cell_angle_beta   101.32000000
_cell_angle_gamma   90.00000000
_symmetry_Int_Tables_number   1
_chemical_formula_structural   SiO4
_chemical_formula_sum   'Si1 O4'
_cell_volume   3510.74706776
_cell_formula_units_Z   1
loop_
 _symmetry_equiv_pos_site_id
 _symmetry_equiv_pos_as_xyz
  1  'x, y, z'
loop_
 _atom_site_type_symbol
 _atom_site_label
 _atom_site_symmetry_multiplicity
 _atom_site_fract_x
 _atom_site_fract_y
 _atom_site_fract_z
 _atom_site_occupancy
  Si  Si0  1  0.70041000  0.79349000  0.04874000  1
  O  O1  1  0.64104000  0.76237000  -0.04926000  1
  O  O2  1  0.76373000  0.72717000  0.04712000  1
  O  O3  1  0.67546000  0.77771000  0.16254000  1
  O  O4  1  0.71684000  0.90525000  0.03418000  1
