# generated using pymatgen
data_SiO4
_symmetry_space_group_name_H-M   'P 1'
_cell_length_a   22.86200000
_cell_length_b   15.65600000
_cell_length_c   13.93500000
_cell_angle_alpha   90.00000000
_cell_angle_beta   90.00000000
_cell_angle_gamma   90.00000000
_symmetry_Int_Tables_number   1
_chemical_formula_structural   SiO4
_chemical_formula_sum   'Si1 O4'
_cell_volume   4987.71932232
_cell_formula_units_Z   1
loop_
 _symmetry_equiv_pos_site_id
 _symmetry_equiv_pos_as_xyz
  1  'x, y, z'
loop_
 _atom_site_type_symbol
 _atom_site_label
 _atom_site_symmetry_multiplicity
 _atom_site_fract_x
 _atom_site_fract_y
 _atom_site_fract_z
 _atom_site_occupancy
  Si  Si0  1  0.81620000  0.50000000  0.21080000  1
  O  O1  1  0.84920000  0.58420000  0.24950000  1
  O  O2  1  0.84920000  0.41580000  0.24950000  1
  O  O3  1  0.81760000  0.50000000  0.09520000  1
  O  O4  1  0.75000000  0.50000000  0.25000000  1
