# generated using pymatgen
data_Si
_symmetry_space_group_name_H-M   'P 1'
_cell_length_a   22.86200000
_cell_length_b   15.65600000
_cell_length_c   13.93500000
_cell_angle_alpha   90.00000000
_cell_angle_beta   90.00000000
_cell_angle_gamma   90.00000000
_symmetry_Int_Tables_number   1
_chemical_formula_structural   Si
_chemical_formula_sum   Si88
_cell_volume   4987.71932232
_cell_formula_units_Z   88
loop_
 _symmetry_equiv_pos_site_id
 _symmetry_equiv_pos_as_xyz
  1  'x, y, z'
loop_
 _atom_site_type_symbol
 _atom_site_label
 _atom_site_symmetry_multiplicity
 _atom_site_fract_x
 _atom_site_fract_y
 _atom_site_fract_z
 _atom_site_occupancy
  Si  Si0  1  0.37570000  0.16250000  0.31030000  1
  Si  Si1  1  0.37570000  0.66250000  0.81030000  1
  Si  Si2  1  0.87570000  0.66250000  0.31030000  1
  Si  Si3  1  0.87570000  0.16250000  0.81030000  1
  Si  Si4  1  0.62430000  0.16250000  0.31030000  1
  Si  Si5  1  0.62430000  0.66250000  0.81030000  1
  Si  Si6  1  0.12430000  0.66250000  0.31030000  1
  Si  Si7  1  0.12430000  0.16250000  0.81030000  1
  Si  Si8  1  0.37570000  0.83750000  0.31030000  1
  Si  Si9  1  0.37570000  0.33750000  0.81030000  1
  Si  Si10  1  0.87570000  0.33750000  0.31030000  1
  Si  Si11  1  0.87570000  0.83750000  0.81030000  1
  Si  Si12  1  0.62430000  0.83750000  0.31030000  1
  Si  Si13  1  0.62430000  0.33750000  0.81030000  1
  Si  Si14  1  0.12430000  0.33750000  0.31030000  1
  Si  Si15  1  0.12430000  0.83750000  0.81030000  1
  Si  Si16  1  0.62430000  0.83750000  0.68970000  1
  Si  Si17  1  0.62430000  0.33750000  0.18970000  1
  Si  Si18  1  0.12430000  0.33750000  0.68970000  1
  Si  Si19  1  0.12430000  0.83750000  0.18970000  1
  Si  Si20  1  0.37570000  0.83750000  0.68970000  1
  Si  Si21  1  0.37570000  0.33750000  0.18970000  1
  Si  Si22  1  0.87570000  0.33750000  0.68970000  1
  Si  Si23  1  0.87570000  0.83750000  0.18970000  1
  Si  Si24  1  0.62430000  0.16250000  0.68970000  1
  Si  Si25  1  0.62430000  0.66250000  0.18970000  1
  Si  Si26  1  0.12430000  0.66250000  0.68970000  1
  Si  Si27  1  0.12430000  0.16250000  0.18970000  1
  Si  Si28  1  0.37570000  0.16250000  0.68970000  1
  Si  Si29  1  0.37570000  0.66250000  0.18970000  1
  Si  Si30  1  0.87570000  0.66250000  0.68970000  1
  Si  Si31  1  0.87570000  0.16250000  0.18970000  1
  Si  Si32  1  0.29690000  0.32640000  0.00000000  1
  Si  Si33  1  0.29690000  0.82640000  0.50000000  1
  Si  Si34  1  0.79690000  0.82640000  0.00000000  1
  Si  Si35  1  0.79690000  0.32640000  0.50000000  1
  Si  Si36  1  0.70310000  0.32640000  0.00000000  1
  Si  Si37  1  0.70310000  0.82640000  0.50000000  1
  Si  Si38  1  0.20310000  0.82640000  0.00000000  1
  Si  Si39  1  0.20310000  0.32640000  0.50000000  1
  Si  Si40  1  0.29690000  0.67360000  0.00000000  1
  Si  Si41  1  0.29690000  0.17360000  0.50000000  1
  Si  Si42  1  0.79690000  0.17360000  0.00000000  1
  Si  Si43  1  0.79690000  0.67360000  0.50000000  1
  Si  Si44  1  0.70310000  0.67360000  0.00000000  1
  Si  Si45  1  0.70310000  0.17360000  0.50000000  1
  Si  Si46  1  0.20310000  0.17360000  0.00000000  1
  Si  Si47  1  0.20310000  0.67360000  0.50000000  1
  Si  Si48  1  0.50000000  0.10180000  0.61270000  1
  Si  Si49  1  0.50000000  0.60180000  0.11270000  1
  Si  Si50  1  0.00000000  0.60180000  0.61270000  1
  Si  Si51  1  0.00000000  0.10180000  0.11270000  1
  Si  Si52  1  0.50000000  0.89820000  0.61270000  1
  Si  Si53  1  0.50000000  0.39820000  0.11270000  1
  Si  Si54  1  0.00000000  0.39820000  0.61270000  1
  Si  Si55  1  0.00000000  0.89820000  0.11270000  1
  Si  Si56  1  0.50000000  0.89820000  0.38730000  1
  Si  Si57  1  0.50000000  0.39820000  0.88730000  1
  Si  Si58  1  0.00000000  0.39820000  0.38730000  1
  Si  Si59  1  0.00000000  0.89820000  0.88730000  1
  Si  Si60  1  0.50000000  0.10180000  0.38730000  1
  Si  Si61  1  0.50000000  0.60180000  0.88730000  1
  Si  Si62  1  0.00000000  0.60180000  0.38730000  1
  Si  Si63  1  0.00000000  0.10180000  0.88730000  1
  Si  Si64  1  0.31620000  0.50000000  0.28920000  1
  Si  Si65  1  0.31620000  0.00000000  0.78920000  1
  Si  Si66  1  0.81620000  0.00000000  0.28920000  1
  Si  Si67  1  0.81620000  0.50000000  0.78920000  1
  Si  Si68  1  0.68380000  0.50000000  0.28920000  1
  Si  Si69  1  0.68380000  0.00000000  0.78920000  1
  Si  Si70  1  0.18380000  0.00000000  0.28920000  1
  Si  Si71  1  0.18380000  0.50000000  0.78920000  1
  Si  Si72  1  0.68380000  0.50000000  0.71080000  1
  Si  Si73  1  0.68380000  0.00000000  0.21080000  1
  Si  Si74  1  0.18380000  0.00000000  0.71080000  1
  Si  Si75  1  0.18380000  0.50000000  0.21080000  1
  Si  Si76  1  0.31620000  0.50000000  0.71080000  1
  Si  Si77  1  0.31620000  0.00000000  0.21080000  1
  Si  Si78  1  0.81620000  0.00000000  0.71080000  1
  Si  Si79  1  0.81620000  0.50000000  0.21080000  1
  Si  Si80  1  0.27780000  0.50000000  0.50000000  1
  Si  Si81  1  0.27780000  0.00000000  0.00000000  1
  Si  Si82  1  0.77780000  0.00000000  0.50000000  1
  Si  Si83  1  0.77780000  0.50000000  0.00000000  1
  Si  Si84  1  0.72220000  0.50000000  0.50000000  1
  Si  Si85  1  0.72220000  0.00000000  0.00000000  1
  Si  Si86  1  0.22220000  0.00000000  0.50000000  1
  Si  Si87  1  0.22220000  0.50000000  0.00000000  1
