# generated using pymatgen
data_SiO4
_symmetry_space_group_name_H-M   'P 1'
_cell_length_a   12.66240000
_cell_length_b   12.66240000
_cell_length_c   25.25930000
_cell_angle_alpha   90.00000000
_cell_angle_beta   90.00000000
_cell_angle_gamma   120.00000000
_symmetry_Int_Tables_number   1
_chemical_formula_structural   SiO4
_chemical_formula_sum   'Si1 O4'
_cell_volume   3507.38951884
_cell_formula_units_Z   1
loop_
 _symmetry_equiv_pos_site_id
 _symmetry_equiv_pos_as_xyz
  1  'x, y, z'
loop_
 _atom_site_type_symbol
 _atom_site_label
 _atom_site_symmetry_multiplicity
 _atom_site_fract_x
 _atom_site_fract_y
 _atom_site_fract_z
 _atom_site_occupancy
  Si  Si0  1  0.57706000  0.66559000  0.20046000  1
  O  O1  1  0.62544000  0.63453000  0.14708000  1
  O  O2  1  0.45345000  0.54655000  0.21949000  1
  O  O3  1  0.67924000  0.70572000  0.24583000  1
  O  O4  1  0.55008000  0.77504000  0.18928000  1
