# generated using pymatgen
data_SiO4
_symmetry_space_group_name_H-M   'P 1'
_cell_length_a   12.66240000
_cell_length_b   12.66240000
_cell_length_c   25.25930000
_cell_angle_alpha   90.00000000
_cell_angle_beta   90.00000000
_cell_angle_gamma   120.00000000
_symmetry_Int_Tables_number   1
_chemical_formula_structural   SiO4
_chemical_formula_sum   'Si1 O4'
_cell_volume   3507.38951884
_cell_formula_units_Z   1
loop_
 _symmetry_equiv_pos_site_id
 _symmetry_equiv_pos_as_xyz
  1  'x, y, z'
loop_
 _atom_site_type_symbol
 _atom_site_label
 _atom_site_symmetry_multiplicity
 _atom_site_fract_x
 _atom_site_fract_y
 _atom_site_fract_z
 _atom_site_occupancy
  Si  Si0  1  0.90971000  0.57701000  0.10038000  1
  O  O1  1  0.78385000  0.56770000  0.11929000  1
  O  O2  1  1.00909000  0.63453000  0.14708000  1
  O  O3  1  0.96023000  0.66337000  0.04902000  1
  O  O4  1  0.88604000  0.44302000  0.08598000  1
