# generated using pymatgen
data_O2
_symmetry_space_group_name_H-M   'P 1'
_cell_length_a   12.66240000
_cell_length_b   12.66240000
_cell_length_c   25.25930000
_cell_angle_alpha   90.00000000
_cell_angle_beta   90.00000000
_cell_angle_gamma   120.00000000
_symmetry_Int_Tables_number   1
_chemical_formula_structural   O2
_chemical_formula_sum   O120
_cell_volume   3507.38951884
_cell_formula_units_Z   60
loop_
 _symmetry_equiv_pos_site_id
 _symmetry_equiv_pos_as_xyz
  1  'x, y, z'
loop_
 _atom_site_type_symbol
 _atom_site_label
 _atom_site_symmetry_multiplicity
 _atom_site_fract_x
 _atom_site_fract_y
 _atom_site_fract_z
 _atom_site_occupancy
  O  O0  1  0.43230000  0.21615000  0.11929000  1
  O  O1  1  0.78385000  0.21615000  0.11929000  1
  O  O2  1  0.78385000  0.56770000  0.11929000  1
  O  O3  1  0.56770000  0.78385000  0.88071000  1
  O  O4  1  0.21615000  0.78385000  0.88071000  1
  O  O5  1  0.21615000  0.43230000  0.88071000  1
  O  O6  1  0.89540000  0.79080000  0.28924000  1
  O  O7  1  0.20920000  0.10460000  0.28924000  1
  O  O8  1  0.89540000  0.10460000  0.28924000  1
  O  O9  1  0.10460000  0.20920000  0.71076000  1
  O  O10  1  0.79080000  0.89540000  0.71076000  1
  O  O11  1  0.10460000  0.89540000  0.71076000  1
  O  O12  1  0.23440000  0.11720000  0.51054000  1
  O  O13  1  0.88280000  0.11720000  0.51054000  1
  O  O14  1  0.88280000  0.76560000  0.51054000  1
  O  O15  1  0.76560000  0.88280000  0.48946000  1
  O  O16  1  0.11720000  0.88280000  0.48946000  1
  O  O17  1  0.11720000  0.23440000  0.48946000  1
  O  O18  1  0.65436000  0.95676000  0.65497000  1
  O  O19  1  0.04324000  0.69760000  0.65497000  1
  O  O20  1  0.30240000  0.34564000  0.65497000  1
  O  O21  1  0.04324000  0.34564000  0.65497000  1
  O  O22  1  0.65436000  0.69760000  0.65497000  1
  O  O23  1  0.30240000  0.95676000  0.65497000  1
  O  O24  1  0.34564000  0.04324000  0.34503000  1
  O  O25  1  0.95676000  0.30240000  0.34503000  1
  O  O26  1  0.69760000  0.65436000  0.34503000  1
  O  O27  1  0.95676000  0.65436000  0.34503000  1
  O  O28  1  0.34564000  0.30240000  0.34503000  1
  O  O29  1  0.69760000  0.04324000  0.34503000  1
  O  O30  1  0.33390000  0.31072000  0.44892000  1
  O  O31  1  0.68928000  0.02318000  0.44892000  1
  O  O32  1  0.97682000  0.66610000  0.44892000  1
  O  O33  1  0.68928000  0.66610000  0.44892000  1
  O  O34  1  0.33390000  0.02318000  0.44892000  1
  O  O35  1  0.97682000  0.31072000  0.44892000  1
  O  O36  1  0.66610000  0.68928000  0.55108000  1
  O  O37  1  0.31072000  0.97682000  0.55108000  1
  O  O38  1  0.02318000  0.33390000  0.55108000  1
  O  O39  1  0.31072000  0.33390000  0.55108000  1
  O  O40  1  0.66610000  0.97682000  0.55108000  1
  O  O41  1  0.02318000  0.68928000  0.55108000  1
  O  O42  1  0.37456000  0.36547000  0.85292000  1
  O  O43  1  0.63453000  0.00909000  0.85292000  1
  O  O44  1  0.99091000  0.62544000  0.85292000  1
  O  O45  1  0.63453000  0.62544000  0.85292000  1
  O  O46  1  0.37456000  0.00909000  0.85292000  1
  O  O47  1  0.99091000  0.36547000  0.85292000  1
  O  O48  1  0.62544000  0.63453000  0.14708000  1
  O  O49  1  0.36547000  0.99091000  0.14708000  1
  O  O50  1  0.00909000  0.37456000  0.14708000  1
  O  O51  1  0.36547000  0.37456000  0.14708000  1
  O  O52  1  0.62544000  0.99091000  0.14708000  1
  O  O53  1  0.00909000  0.63453000  0.14708000  1
  O  O54  1  0.47306000  0.23653000  0.40445000  1
  O  O55  1  0.76347000  0.23653000  0.40445000  1
  O  O56  1  0.76347000  0.52694000  0.40445000  1
  O  O57  1  0.52694000  0.76347000  0.59555000  1
  O  O58  1  0.23653000  0.76347000  0.59555000  1
  O  O59  1  0.23653000  0.47306000  0.59555000  1
  O  O60  1  0.33663000  0.29686000  0.04902000  1
  O  O61  1  0.70314000  0.03977000  0.04902000  1
  O  O62  1  0.96023000  0.66337000  0.04902000  1
  O  O63  1  0.70314000  0.66337000  0.04902000  1
  O  O64  1  0.33663000  0.03977000  0.04902000  1
  O  O65  1  0.96023000  0.29686000  0.04902000  1
  O  O66  1  0.66337000  0.70314000  0.95098000  1
  O  O67  1  0.29686000  0.96023000  0.95098000  1
  O  O68  1  0.03977000  0.33663000  0.95098000  1
  O  O69  1  0.29686000  0.33663000  0.95098000  1
  O  O70  1  0.66337000  0.96023000  0.95098000  1
  O  O71  1  0.03977000  0.70314000  0.95098000  1
  O  O72  1  0.45345000  0.54655000  0.21949000  1
  O  O73  1  0.45345000  0.90690000  0.21949000  1
  O  O74  1  0.09310000  0.54655000  0.21949000  1
  O  O75  1  0.54655000  0.45345000  0.78051000  1
  O  O76  1  0.54655000  0.09310000  0.78051000  1
  O  O77  1  0.90690000  0.45345000  0.78051000  1
  O  O78  1  0.53252000  0.06504000  0.39889000  1
  O  O79  1  0.93496000  0.46748000  0.39889000  1
  O  O80  1  0.53252000  0.46748000  0.39889000  1
  O  O81  1  0.46748000  0.93496000  0.60111000  1
  O  O82  1  0.06504000  0.53252000  0.60111000  1
  O  O83  1  0.46748000  0.53252000  0.60111000  1
  O  O84  1  0.32076000  0.29428000  0.75417000  1
  O  O85  1  0.70572000  0.02648000  0.75417000  1
  O  O86  1  0.97352000  0.67924000  0.75417000  1
  O  O87  1  0.70572000  0.67924000  0.75417000  1
  O  O88  1  0.32076000  0.02648000  0.75417000  1
  O  O89  1  0.97352000  0.29428000  0.75417000  1
  O  O90  1  0.67924000  0.70572000  0.24583000  1
  O  O91  1  0.29428000  0.97352000  0.24583000  1
  O  O92  1  0.02648000  0.32076000  0.24583000  1
  O  O93  1  0.29428000  0.32076000  0.24583000  1
  O  O94  1  0.67924000  0.97352000  0.24583000  1
  O  O95  1  0.02648000  0.70572000  0.24583000  1
  O  O96  1  0.87691000  0.75382000  0.68153000  1
  O  O97  1  0.24618000  0.12309000  0.68153000  1
  O  O98  1  0.87691000  0.12309000  0.68153000  1
  O  O99  1  0.12309000  0.24618000  0.31847000  1
  O  O100  1  0.75382000  0.87691000  0.31847000  1
  O  O101  1  0.12309000  0.87691000  0.31847000  1
  O  O102  1  0.44992000  0.22496000  0.81072000  1
  O  O103  1  0.77504000  0.22496000  0.81072000  1
  O  O104  1  0.77504000  0.55008000  0.81072000  1
  O  O105  1  0.55008000  0.77504000  0.18928000  1
  O  O106  1  0.22496000  0.77504000  0.18928000  1
  O  O107  1  0.22496000  0.44992000  0.18928000  1
  O  O108  1  0.88604000  0.44302000  0.08598000  1
  O  O109  1  0.55698000  0.44302000  0.08598000  1
  O  O110  1  0.55698000  0.11396000  0.08598000  1
  O  O111  1  0.11396000  0.55698000  0.91402000  1
  O  O112  1  0.44302000  0.55698000  0.91402000  1
  O  O113  1  0.44302000  0.88604000  0.91402000  1
  O  O114  1  0.11321000  0.22642000  0.01715000  1
  O  O115  1  0.77358000  0.88679000  0.01715000  1
  O  O116  1  0.11321000  0.88679000  0.01715000  1
  O  O117  1  0.88679000  0.77358000  0.98285000  1
  O  O118  1  0.22642000  0.11321000  0.98285000  1
  O  O119  1  0.88679000  0.11321000  0.98285000  1
