# generated using pymatgen
data_Si
_symmetry_space_group_name_H-M   'P 1'
_cell_length_a   12.66240000
_cell_length_b   12.66240000
_cell_length_c   25.25930000
_cell_angle_alpha   90.00000000
_cell_angle_beta   90.00000000
_cell_angle_gamma   120.00000000
_symmetry_Int_Tables_number   1
_chemical_formula_structural   Si
_chemical_formula_sum   Si60
_cell_volume   3507.38951884
_cell_formula_units_Z   60
loop_
 _symmetry_equiv_pos_site_id
 _symmetry_equiv_pos_as_xyz
  1  'x, y, z'
loop_
 _atom_site_type_symbol
 _atom_site_label
 _atom_site_symmetry_multiplicity
 _atom_site_fract_x
 _atom_site_fract_y
 _atom_site_fract_z
 _atom_site_occupancy
  Si  Si0  1  0.42299000  0.33270000  0.10038000  1
  Si  Si1  1  0.66730000  0.09029000  0.10038000  1
  Si  Si2  1  0.90971000  0.57701000  0.10038000  1
  Si  Si3  1  0.66730000  0.57701000  0.10038000  1
  Si  Si4  1  0.42299000  0.09029000  0.10038000  1
  Si  Si5  1  0.90971000  0.33270000  0.10038000  1
  Si  Si6  1  0.57701000  0.66730000  0.89962000  1
  Si  Si7  1  0.33270000  0.90971000  0.89962000  1
  Si  Si8  1  0.09029000  0.42299000  0.89962000  1
  Si  Si9  1  0.33270000  0.42299000  0.89962000  1
  Si  Si10  1  0.57701000  0.90971000  0.89962000  1
  Si  Si11  1  0.09029000  0.66730000  0.89962000  1
  Si  Si12  1  0.42294000  0.33441000  0.79954000  1
  Si  Si13  1  0.66559000  0.08853000  0.79954000  1
  Si  Si14  1  0.91147000  0.57706000  0.79954000  1
  Si  Si15  1  0.66559000  0.57706000  0.79954000  1
  Si  Si16  1  0.42294000  0.08853000  0.79954000  1
  Si  Si17  1  0.91147000  0.33441000  0.79954000  1
  Si  Si18  1  0.57706000  0.66559000  0.20046000  1
  Si  Si19  1  0.33441000  0.91147000  0.20046000  1
  Si  Si20  1  0.08853000  0.42294000  0.20046000  1
  Si  Si21  1  0.33441000  0.42294000  0.20046000  1
  Si  Si22  1  0.57706000  0.91147000  0.20046000  1
  Si  Si23  1  0.08853000  0.66559000  0.20046000  1
  Si  Si24  1  0.42125000  0.32923000  0.39933000  1
  Si  Si25  1  0.67077000  0.09202000  0.39933000  1
  Si  Si26  1  0.90798000  0.57875000  0.39933000  1
  Si  Si27  1  0.67077000  0.57875000  0.39933000  1
  Si  Si28  1  0.42125000  0.09202000  0.39933000  1
  Si  Si29  1  0.90798000  0.32923000  0.39933000  1
  Si  Si30  1  0.57875000  0.67077000  0.60067000  1
  Si  Si31  1  0.32923000  0.90798000  0.60067000  1
  Si  Si32  1  0.09202000  0.42125000  0.60067000  1
  Si  Si33  1  0.32923000  0.42125000  0.60067000  1
  Si  Si34  1  0.57875000  0.90798000  0.60067000  1
  Si  Si35  1  0.09202000  0.67077000  0.60067000  1
  Si  Si36  1  0.24353000  0.24319000  0.70038000  1
  Si  Si37  1  0.75681000  0.00034000  0.70038000  1
  Si  Si38  1  0.99966000  0.75647000  0.70038000  1
  Si  Si39  1  0.75681000  0.75647000  0.70038000  1
  Si  Si40  1  0.24353000  0.00034000  0.70038000  1
  Si  Si41  1  0.99966000  0.24319000  0.70038000  1
  Si  Si42  1  0.75647000  0.75681000  0.29962000  1
  Si  Si43  1  0.24319000  0.99966000  0.29962000  1
  Si  Si44  1  0.00034000  0.24353000  0.29962000  1
  Si  Si45  1  0.24319000  0.24353000  0.29962000  1
  Si  Si46  1  0.75647000  0.99966000  0.29962000  1
  Si  Si47  1  0.00034000  0.75681000  0.29962000  1
  Si  Si48  1  0.24326000  0.24326000  0.00000000  1
  Si  Si49  1  0.75674000  0.00000000  0.00000000  1
  Si  Si50  1  0.00000000  0.75674000  0.00000000  1
  Si  Si51  1  0.75674000  0.75674000  0.00000000  1
  Si  Si52  1  0.24326000  0.00000000  0.00000000  1
  Si  Si53  1  0.00000000  0.24326000  0.00000000  1
  Si  Si54  1  0.24915000  0.24915000  0.50000000  1
  Si  Si55  1  0.75085000  0.00000000  0.50000000  1
  Si  Si56  1  0.00000000  0.75085000  0.50000000  1
  Si  Si57  1  0.75085000  0.75085000  0.50000000  1
  Si  Si58  1  0.24915000  0.00000000  0.50000000  1
  Si  Si59  1  0.00000000  0.24915000  0.50000000  1
