# generated using pymatgen
data_Si
_symmetry_space_group_name_H-M   'P 1'
_cell_length_a   14.34900000
_cell_length_b   14.34900000
_cell_length_c   10.39800000
_cell_angle_alpha   90.00000000
_cell_angle_beta   90.00000000
_cell_angle_gamma   90.00000000
_symmetry_Int_Tables_number   1
_chemical_formula_structural   Si
_chemical_formula_sum   Si32
_cell_volume   2140.88374280
_cell_formula_units_Z   32
loop_
 _symmetry_equiv_pos_site_id
 _symmetry_equiv_pos_as_xyz
  1  'x, y, z'
loop_
 _atom_site_type_symbol
 _atom_site_label
 _atom_site_symmetry_multiplicity
 _atom_site_fract_x
 _atom_site_fract_y
 _atom_site_fract_z
 _atom_site_occupancy
  Si  Si0  1  0.26620000  0.88930000  0.00000000  1
  Si  Si1  1  0.76620000  0.38930000  0.50000000  1
  Si  Si2  1  0.11070000  0.26620000  0.00000000  1
  Si  Si3  1  0.61070000  0.76620000  0.50000000  1
  Si  Si4  1  0.73380000  0.11070000  0.00000000  1
  Si  Si5  1  0.23380000  0.61070000  0.50000000  1
  Si  Si6  1  0.88930000  0.73380000  0.00000000  1
  Si  Si7  1  0.38930000  0.23380000  0.50000000  1
  Si  Si8  1  0.73380000  0.88930000  0.00000000  1
  Si  Si9  1  0.23380000  0.38930000  0.50000000  1
  Si  Si10  1  0.88930000  0.26620000  0.00000000  1
  Si  Si11  1  0.38930000  0.76620000  0.50000000  1
  Si  Si12  1  0.26620000  0.11070000  0.00000000  1
  Si  Si13  1  0.76620000  0.61070000  0.50000000  1
  Si  Si14  1  0.11070000  0.73380000  0.00000000  1
  Si  Si15  1  0.61070000  0.23380000  0.50000000  1
  Si  Si16  1  0.60900000  0.89100000  0.75000000  1
  Si  Si17  1  0.10900000  0.39100000  0.25000000  1
  Si  Si18  1  0.10900000  0.60900000  0.75000000  1
  Si  Si19  1  0.60900000  0.10900000  0.25000000  1
  Si  Si20  1  0.39100000  0.10900000  0.75000000  1
  Si  Si21  1  0.89100000  0.60900000  0.25000000  1
  Si  Si22  1  0.89100000  0.39100000  0.75000000  1
  Si  Si23  1  0.39100000  0.89100000  0.25000000  1
  Si  Si24  1  0.39100000  0.89100000  0.75000000  1
  Si  Si25  1  0.89100000  0.39100000  0.25000000  1
  Si  Si26  1  0.89100000  0.60900000  0.75000000  1
  Si  Si27  1  0.39100000  0.10900000  0.25000000  1
  Si  Si28  1  0.60900000  0.10900000  0.75000000  1
  Si  Si29  1  0.10900000  0.60900000  0.25000000  1
  Si  Si30  1  0.10900000  0.39100000  0.75000000  1
  Si  Si31  1  0.60900000  0.89100000  0.25000000  1
