# generated using pymatgen
data_Si
_symmetry_space_group_name_H-M   'P 1'
_cell_length_a   7.18700000
_cell_length_b   7.18700000
_cell_length_c   13.84600000
_cell_angle_alpha   90.00000000
_cell_angle_beta   90.00000000
_cell_angle_gamma   120.00000000
_symmetry_Int_Tables_number   1
_chemical_formula_structural   Si
_chemical_formula_sum   Si10
_cell_volume   619.37011805
_cell_formula_units_Z   10
loop_
 _symmetry_equiv_pos_site_id
 _symmetry_equiv_pos_as_xyz
  1  'x, y, z'
loop_
 _atom_site_type_symbol
 _atom_site_label
 _atom_site_symmetry_multiplicity
 _atom_site_fract_x
 _atom_site_fract_y
 _atom_site_fract_z
 _atom_site_occupancy
  Si  Si0  1  0.80360000  0.60730000  0.25000000  1
  Si  Si1  1  0.39270000  0.19630000  0.25000000  1
  Si  Si2  1  0.80370000  0.19640000  0.25000000  1
  Si  Si3  1  0.19640000  0.39270000  0.75000000  1
  Si  Si4  1  0.60730000  0.80370000  0.75000000  1
  Si  Si5  1  0.19630000  0.80360000  0.75000000  1
  Si  Si6  1  0.00000000  0.00000000  0.38400000  1
  Si  Si7  1  0.00000000  0.00000000  0.88400000  1
  Si  Si8  1  0.00000000  0.00000000  0.61600000  1
  Si  Si9  1  0.00000000  0.00000000  0.11600000  1
