# generated using pymatgen
data_SiO4
_symmetry_space_group_name_H-M   'P 1'
_cell_length_a   16.01850000
_cell_length_b   9.66550000
_cell_length_c   16.83310000
_cell_angle_alpha   90.00000000
_cell_angle_beta   90.00000000
_cell_angle_gamma   90.00000000
_symmetry_Int_Tables_number   1
_chemical_formula_structural   SiO4
_chemical_formula_sum   'Si1 O4'
_cell_volume   2606.21520487
_cell_formula_units_Z   1
loop_
 _symmetry_equiv_pos_site_id
 _symmetry_equiv_pos_as_xyz
  1  'x, y, z'
loop_
 _atom_site_type_symbol
 _atom_site_label
 _atom_site_symmetry_multiplicity
 _atom_site_fract_x
 _atom_site_fract_y
 _atom_site_fract_z
 _atom_site_occupancy
  Si  Si0  1  0.75440000  0.66390000  0.18590000  1
  O  O1  1  0.70390000  0.74030000  0.25600000  1
  O  O2  1  0.84160000  0.60540000  0.21960000  1
  O  O3  1  0.70000000  0.53690000  0.15230000  1
  O  O4  1  0.77260000  0.77460000  0.11650000  1
