# generated using pymatgen
data_O2
_symmetry_space_group_name_H-M   'P 1'
_cell_length_a   16.01850000
_cell_length_b   9.66550000
_cell_length_c   16.83310000
_cell_angle_alpha   90.00000000
_cell_angle_beta   90.00000000
_cell_angle_gamma   90.00000000
_symmetry_Int_Tables_number   1
_chemical_formula_structural   O2
_chemical_formula_sum   O96
_cell_volume   2606.21520487
_cell_formula_units_Z   48
loop_
 _symmetry_equiv_pos_site_id
 _symmetry_equiv_pos_as_xyz
  1  'x, y, z'
loop_
 _atom_site_type_symbol
 _atom_site_label
 _atom_site_symmetry_multiplicity
 _atom_site_fract_x
 _atom_site_fract_y
 _atom_site_fract_z
 _atom_site_occupancy
  O  O0  1  0.18260000  0.04890000  0.99460000  1
  O  O1  1  0.31740000  0.95110000  0.49460000  1
  O  O2  1  0.81740000  0.54890000  0.50540000  1
  O  O3  1  0.68260000  0.45110000  0.00540000  1
  O  O4  1  0.81740000  0.95110000  0.00540000  1
  O  O5  1  0.68260000  0.04890000  0.50540000  1
  O  O6  1  0.18260000  0.45110000  0.49460000  1
  O  O7  1  0.31740000  0.54890000  0.99460000  1
  O  O8  1  0.29010000  0.16040000  0.09520000  1
  O  O9  1  0.20990000  0.83960000  0.59520000  1
  O  O10  1  0.70990000  0.66040000  0.40480000  1
  O  O11  1  0.79010000  0.33960000  0.90480000  1
  O  O12  1  0.70990000  0.83960000  0.90480000  1
  O  O13  1  0.79010000  0.16040000  0.40480000  1
  O  O14  1  0.29010000  0.33960000  0.59520000  1
  O  O15  1  0.20990000  0.66040000  0.09520000  1
  O  O16  1  0.21680000  0.92480000  0.12980000  1
  O  O17  1  0.28320000  0.07520000  0.62980000  1
  O  O18  1  0.78320000  0.42480000  0.37020000  1
  O  O19  1  0.71680000  0.57520000  0.87020000  1
  O  O20  1  0.78320000  0.07520000  0.87020000  1
  O  O21  1  0.71680000  0.92480000  0.37020000  1
  O  O22  1  0.21680000  0.57520000  0.62980000  1
  O  O23  1  0.28320000  0.42480000  0.12980000  1
  O  O24  1  0.13080000  0.15540000  0.12980000  1
  O  O25  1  0.36920000  0.84460000  0.62980000  1
  O  O26  1  0.86920000  0.65540000  0.37020000  1
  O  O27  1  0.63080000  0.34460000  0.87020000  1
  O  O28  1  0.86920000  0.84460000  0.87020000  1
  O  O29  1  0.63080000  0.15540000  0.37020000  1
  O  O30  1  0.13080000  0.34460000  0.62980000  1
  O  O31  1  0.36920000  0.65540000  0.12980000  1
  O  O32  1  0.07620000  0.78820000  0.15040000  1
  O  O33  1  0.42380000  0.21180000  0.65040000  1
  O  O34  1  0.92380000  0.28820000  0.34960000  1
  O  O35  1  0.57620000  0.71180000  0.84960000  1
  O  O36  1  0.92380000  0.21180000  0.84960000  1
  O  O37  1  0.57620000  0.78820000  0.34960000  1
  O  O38  1  0.07620000  0.71180000  0.65040000  1
  O  O39  1  0.42380000  0.28820000  0.15040000  1
  O  O40  1  0.20390000  0.74030000  0.24400000  1
  O  O41  1  0.29610000  0.25970000  0.74400000  1
  O  O42  1  0.79610000  0.24030000  0.25600000  1
  O  O43  1  0.70390000  0.75970000  0.75600000  1
  O  O44  1  0.79610000  0.25970000  0.75600000  1
  O  O45  1  0.70390000  0.74030000  0.25600000  1
  O  O46  1  0.20390000  0.75970000  0.74400000  1
  O  O47  1  0.29610000  0.24030000  0.24400000  1
  O  O48  1  0.95770000  0.78360000  0.25950000  1
  O  O49  1  0.54230000  0.21640000  0.75950000  1
  O  O50  1  0.04230000  0.28360000  0.24050000  1
  O  O51  1  0.45770000  0.71640000  0.74050000  1
  O  O52  1  0.04230000  0.21640000  0.74050000  1
  O  O53  1  0.45770000  0.78360000  0.24050000  1
  O  O54  1  0.95770000  0.71640000  0.75950000  1
  O  O55  1  0.54230000  0.28360000  0.25950000  1
  O  O56  1  0.92500000  0.87430000  0.11520000  1
  O  O57  1  0.57500000  0.12570000  0.61520000  1
  O  O58  1  0.07500000  0.37430000  0.38480000  1
  O  O59  1  0.42500000  0.62570000  0.88480000  1
  O  O60  1  0.07500000  0.12570000  0.88480000  1
  O  O61  1  0.42500000  0.87430000  0.38480000  1
  O  O62  1  0.92500000  0.62570000  0.61520000  1
  O  O63  1  0.57500000  0.37430000  0.11520000  1
  O  O64  1  0.01900000  0.01960000  0.21260000  1
  O  O65  1  0.48100000  0.98040000  0.71260000  1
  O  O66  1  0.98100000  0.51960000  0.28740000  1
  O  O67  1  0.51900000  0.48040000  0.78740000  1
  O  O68  1  0.98100000  0.98040000  0.78740000  1
  O  O69  1  0.51900000  0.01960000  0.28740000  1
  O  O70  1  0.01900000  0.48040000  0.71260000  1
  O  O71  1  0.48100000  0.51960000  0.21260000  1
  O  O72  1  0.15840000  0.10540000  0.28040000  1
  O  O73  1  0.34160000  0.89460000  0.78040000  1
  O  O74  1  0.84160000  0.60540000  0.21960000  1
  O  O75  1  0.65840000  0.39460000  0.71960000  1
  O  O76  1  0.84160000  0.89460000  0.71960000  1
  O  O77  1  0.65840000  0.10540000  0.21960000  1
  O  O78  1  0.15840000  0.39460000  0.78040000  1
  O  O79  1  0.34160000  0.60540000  0.28040000  1
  O  O80  1  0.30000000  0.03690000  0.34770000  1
  O  O81  1  0.20000000  0.96310000  0.84770000  1
  O  O82  1  0.70000000  0.53690000  0.15230000  1
  O  O83  1  0.80000000  0.46310000  0.65230000  1
  O  O84  1  0.70000000  0.96310000  0.65230000  1
  O  O85  1  0.80000000  0.03690000  0.15230000  1
  O  O86  1  0.30000000  0.46310000  0.84770000  1
  O  O87  1  0.20000000  0.53690000  0.34770000  1
  O  O88  1  0.27260000  0.77460000  0.38350000  1
  O  O89  1  0.22740000  0.22540000  0.88350000  1
  O  O90  1  0.72740000  0.27460000  0.11650000  1
  O  O91  1  0.77260000  0.72540000  0.61650000  1
  O  O92  1  0.72740000  0.22540000  0.61650000  1
  O  O93  1  0.77260000  0.77460000  0.11650000  1
  O  O94  1  0.27260000  0.72540000  0.88350000  1
  O  O95  1  0.22740000  0.27460000  0.38350000  1
