# generated using pymatgen
data_Si
_symmetry_space_group_name_H-M   'P 1'
_cell_length_a   16.01850000
_cell_length_b   9.66550000
_cell_length_c   16.83310000
_cell_angle_alpha   90.00000000
_cell_angle_beta   90.00000000
_cell_angle_gamma   90.00000000
_symmetry_Int_Tables_number   1
_chemical_formula_structural   Si
_chemical_formula_sum   Si48
_cell_volume   2606.21520487
_cell_formula_units_Z   48
loop_
 _symmetry_equiv_pos_site_id
 _symmetry_equiv_pos_as_xyz
  1  'x, y, z'
loop_
 _atom_site_type_symbol
 _atom_site_label
 _atom_site_symmetry_multiplicity
 _atom_site_fract_x
 _atom_site_fract_y
 _atom_site_fract_z
 _atom_site_occupancy
  Si  Si0  1  0.20530000  0.07220000  0.08670000  1
  Si  Si1  1  0.29470000  0.92780000  0.58670000  1
  Si  Si2  1  0.79470000  0.57220000  0.41330000  1
  Si  Si3  1  0.70530000  0.42780000  0.91330000  1
  Si  Si4  1  0.79470000  0.92780000  0.91330000  1
  Si  Si5  1  0.70530000  0.07220000  0.41330000  1
  Si  Si6  1  0.20530000  0.42780000  0.58670000  1
  Si  Si7  1  0.29470000  0.57220000  0.08670000  1
  Si  Si8  1  0.99460000  0.86590000  0.18410000  1
  Si  Si9  1  0.50540000  0.13410000  0.68410000  1
  Si  Si10  1  0.00540000  0.36590000  0.31590000  1
  Si  Si11  1  0.49460000  0.63410000  0.81590000  1
  Si  Si12  1  0.00540000  0.13410000  0.81590000  1
  Si  Si13  1  0.49460000  0.86590000  0.31590000  1
  Si  Si14  1  0.99460000  0.63410000  0.68410000  1
  Si  Si15  1  0.50540000  0.36590000  0.18410000  1
  Si  Si16  1  0.24560000  0.16390000  0.31410000  1
  Si  Si17  1  0.25440000  0.83610000  0.81410000  1
  Si  Si18  1  0.75440000  0.66390000  0.18590000  1
  Si  Si19  1  0.74560000  0.33610000  0.68590000  1
  Si  Si20  1  0.75440000  0.83610000  0.68590000  1
  Si  Si21  1  0.74560000  0.16390000  0.18590000  1
  Si  Si22  1  0.24560000  0.33610000  0.81410000  1
  Si  Si23  1  0.25440000  0.66390000  0.31410000  1
  Si  Si24  1  0.32840000  0.90910000  0.40270000  1
  Si  Si25  1  0.17160000  0.09090000  0.90270000  1
  Si  Si26  1  0.67160000  0.40910000  0.09730000  1
  Si  Si27  1  0.82840000  0.59090000  0.59730000  1
  Si  Si28  1  0.67160000  0.09090000  0.59730000  1
  Si  Si29  1  0.82840000  0.90910000  0.09730000  1
  Si  Si30  1  0.32840000  0.59090000  0.90270000  1
  Si  Si31  1  0.17160000  0.40910000  0.40270000  1
  Si  Si32  1  0.17640000  0.77850000  0.15470000  1
  Si  Si33  1  0.32360000  0.22150000  0.65470000  1
  Si  Si34  1  0.82360000  0.27850000  0.34530000  1
  Si  Si35  1  0.67640000  0.72150000  0.84530000  1
  Si  Si36  1  0.82360000  0.22150000  0.84530000  1
  Si  Si37  1  0.67640000  0.77850000  0.34530000  1
  Si  Si38  1  0.17640000  0.72150000  0.65470000  1
  Si  Si39  1  0.32360000  0.27850000  0.15470000  1
  Si  Si40  1  0.08750000  0.14130000  0.21580000  1
  Si  Si41  1  0.41250000  0.85870000  0.71580000  1
  Si  Si42  1  0.91250000  0.64130000  0.28420000  1
  Si  Si43  1  0.58750000  0.35870000  0.78420000  1
  Si  Si44  1  0.91250000  0.85870000  0.78420000  1
  Si  Si45  1  0.58750000  0.14130000  0.28420000  1
  Si  Si46  1  0.08750000  0.35870000  0.71580000  1
  Si  Si47  1  0.41250000  0.64130000  0.21580000  1
