# generated using pymatgen
data_SiO4
_symmetry_space_group_name_H-M   'P 1'
_cell_length_a   20.14730522
_cell_length_b   19.76815950
_cell_length_c   13.23092797
_cell_angle_alpha   90.00000000
_cell_angle_beta   90.00000000
_cell_angle_gamma   90.00000000
_symmetry_Int_Tables_number   1
_chemical_formula_structural   SiO4
_chemical_formula_sum   'Si1 O4'
_cell_volume   5269.54973039
_cell_formula_units_Z   1
loop_
 _symmetry_equiv_pos_site_id
 _symmetry_equiv_pos_as_xyz
  1  'x, y, z'
loop_
 _atom_site_type_symbol
 _atom_site_label
 _atom_site_symmetry_multiplicity
 _atom_site_fract_x
 _atom_site_fract_y
 _atom_site_fract_z
 _atom_site_occupancy
  Si  Si0  1  0.51503500  0.02285200  0.44196900  1
  O  O1  1  0.51310600  -0.05541700  0.40222400  1
  O  O2  1  0.58134400  0.05990900  0.39999500  1
  O  O3  1  0.51261000  0.02212700  0.56456300  1
  O  O4  1  0.44984900  0.06266900  0.40273500  1
