# generated using pymatgen
data_SiO4
_symmetry_space_group_name_H-M   'P 1'
_cell_length_a   20.14730522
_cell_length_b   19.76815950
_cell_length_c   13.23092797
_cell_angle_alpha   90.00000000
_cell_angle_beta   90.00000000
_cell_angle_gamma   90.00000000
_symmetry_Int_Tables_number   1
_chemical_formula_structural   SiO4
_chemical_formula_sum   'Si1 O4'
_cell_volume   5269.54973039
_cell_formula_units_Z   1
loop_
 _symmetry_equiv_pos_site_id
 _symmetry_equiv_pos_as_xyz
  1  'x, y, z'
loop_
 _atom_site_type_symbol
 _atom_site_label
 _atom_site_symmetry_multiplicity
 _atom_site_fract_x
 _atom_site_fract_y
 _atom_site_fract_z
 _atom_site_occupancy
  Si  Si0  1  0.52644300  0.86843200  0.44404800  1
  O  O1  1  0.59749300  0.84050200  0.40418300  1
  O  O2  1  0.52693600  0.86386800  0.56533100  1
  O  O3  1  0.51310600  0.94458300  0.40222400  1
  O  O4  1  0.46820600  0.81912100  0.39749200  1
