# generated using pymatgen
data_FeO6
_symmetry_space_group_name_H-M   'P 1'
_cell_length_a   20.14730522
_cell_length_b   19.76815950
_cell_length_c   13.23092797
_cell_angle_alpha   90.00000000
_cell_angle_beta   90.00000000
_cell_angle_gamma   90.00000000
_symmetry_Int_Tables_number   1
_chemical_formula_structural   FeO6
_chemical_formula_sum   'Fe1 O6'
_cell_volume   5269.54973039
_cell_formula_units_Z   1
loop_
 _symmetry_equiv_pos_site_id
 _symmetry_equiv_pos_as_xyz
  1  'x, y, z'
loop_
 _atom_site_type_symbol
 _atom_site_label
 _atom_site_symmetry_multiplicity
 _atom_site_fract_x
 _atom_site_fract_y
 _atom_site_fract_z
 _atom_site_occupancy
  Fe  Fe0  1  0.46756200  0.66612900  0.60524000  1
  O  O1  1  0.49200000  0.76748400  0.69194400  1
  O  O2  1  0.48774100  0.64442300  0.76478700  1
  O  O3  1  0.42270300  0.58618900  0.57840700  1
  O  O4  1  0.38513100  0.71140200  0.58596100  1
  O  O5  1  0.50091700  0.68454600  0.44873700  1
  O  O6  1  0.57683800  0.65409500  0.60681300  1
