# generated using pymatgen
data_SiO4
_symmetry_space_group_name_H-M   'P 1'
_cell_length_a   20.14730522
_cell_length_b   19.76815950
_cell_length_c   13.23092797
_cell_angle_alpha   90.00000000
_cell_angle_beta   90.00000000
_cell_angle_gamma   90.00000000
_symmetry_Int_Tables_number   1
_chemical_formula_structural   SiO4
_chemical_formula_sum   'Si1 O4'
_cell_volume   5269.54973039
_cell_formula_units_Z   1
loop_
 _symmetry_equiv_pos_site_id
 _symmetry_equiv_pos_as_xyz
  1  'x, y, z'
loop_
 _atom_site_type_symbol
 _atom_site_label
 _atom_site_symmetry_multiplicity
 _atom_site_fract_x
 _atom_site_fract_y
 _atom_site_fract_z
 _atom_site_occupancy
  Si  Si0  1  0.27335800  0.33397800  0.79594700  1
  O  O1  1  0.19415400  0.32410200  0.80859500  1
  O  O2  1  0.30617600  0.33735600  0.90820000  1
  O  O3  1  0.30262100  0.26865200  0.73604300  1
  O  O4  1  0.28837300  0.40406700  0.73597800  1
