# generated using pymatgen
data_FeO6
_symmetry_space_group_name_H-M   'P 1'
_cell_length_a   20.14730522
_cell_length_b   19.76815950
_cell_length_c   13.23092797
_cell_angle_alpha   90.00000000
_cell_angle_beta   90.00000000
_cell_angle_gamma   90.00000000
_symmetry_Int_Tables_number   1
_chemical_formula_structural   FeO6
_chemical_formula_sum   'Fe1 O6'
_cell_volume   5269.54973039
_cell_formula_units_Z   1
loop_
 _symmetry_equiv_pos_site_id
 _symmetry_equiv_pos_as_xyz
  1  'x, y, z'
loop_
 _atom_site_type_symbol
 _atom_site_label
 _atom_site_symmetry_multiplicity
 _atom_site_fract_x
 _atom_site_fract_y
 _atom_site_fract_z
 _atom_site_occupancy
  Fe  Fe0  1  0.33938100  0.63041200  0.59159200  1
  O  O1  1  0.31186600  0.53142800  0.68299900  1
  O  O2  1  0.29816800  0.65574900  0.74466400  1
  O  O3  1  0.42270300  0.58618900  0.57840700  1
  O  O4  1  0.38513100  0.71140200  0.58596100  1
  O  O5  1  0.32399900  0.62364200  0.41300000  1
  O  O6  1  0.23939500  0.64193400  0.55076100  1
