# generated using pymatgen
data_AlFeSi47
_symmetry_space_group_name_H-M   'P 1'
_cell_length_a   20.14730522
_cell_length_b   19.76815950
_cell_length_c   13.23092797
_cell_angle_alpha   90.00000000
_cell_angle_beta   90.00000000
_cell_angle_gamma   90.00000000
_symmetry_Int_Tables_number   1
_chemical_formula_structural   AlFeSi47
_chemical_formula_sum   'Al2 Fe2 Si94'
_cell_volume   5269.54973039
_cell_formula_units_Z   2
loop_
 _symmetry_equiv_pos_site_id
 _symmetry_equiv_pos_as_xyz
  1  'x, y, z'
loop_
 _atom_site_type_symbol
 _atom_site_label
 _atom_site_symmetry_multiplicity
 _atom_site_fract_x
 _atom_site_fract_y
 _atom_site_fract_z
 _atom_site_occupancy
  Al  Al0  1  0.27657400  0.57293600  0.78883400  1
  Al  Al1  1  0.49880600  0.72856500  0.81193200  1
  Fe  Fe2  1  0.33938100  0.63041200  0.59159200  1
  Fe  Fe3  1  0.46756200  0.66612900  0.60524000  1
  Si  Si4  1  0.62371300  0.47222900  0.30240900  1
  Si  Si5  1  0.27335800  0.33397800  0.79594700  1
  Si  Si6  1  0.12760800  0.82655000  0.40908700  1
  Si  Si7  1  0.77525900  0.97301800  0.90517400  1
  Si  Si8  1  0.77425500  0.32698500  0.90496600  1
  Si  Si9  1  0.12560000  0.47252900  0.40646400  1
  Si  Si10  1  0.28009200  0.98271300  0.79465400  1
  Si  Si11  1  0.62808200  0.82921500  0.29136400  1
  Si  Si12  1  0.52447800  0.43090600  0.45933800  1
  Si  Si13  1  0.37746700  0.36299100  0.95102300  1
  Si  Si14  1  0.02909200  0.86656900  0.25272900  1
  Si  Si15  1  0.87683000  0.93405300  0.75129400  1
  Si  Si16  1  0.87349200  0.36656400  0.74912800  1
  Si  Si17  1  0.02523000  0.43387900  0.25234600  1
  Si  Si18  1  0.37237700  0.93447400  0.95504900  1
  Si  Si19  1  0.52644300  0.86843200  0.44404800  1
  Si  Si20  1  0.47529500  0.44190700  0.67652900  1
  Si  Si21  1  0.42756200  0.34946700  0.16728400  1
  Si  Si22  1  0.97718300  0.85007300  0.03747600  1
  Si  Si23  1  0.92546800  0.94885100  0.53441600  1
  Si  Si24  1  0.92271600  0.35147800  0.53131600  1
  Si  Si25  1  0.97012400  0.45143800  0.03901700  1
  Si  Si26  1  0.42330400  0.94712400  0.17124200  1
  Si  Si27  1  0.47781500  0.84495500  0.65937800  1
  Si  Si28  1  0.32182000  0.45310200  0.65139700  1
  Si  Si29  1  0.58125000  0.34959200  0.15651400  1
  Si  Si30  1  0.82411800  0.85073600  0.04767700  1
  Si  Si31  1  0.08025400  0.95034000  0.55012700  1
  Si  Si32  1  0.07792600  0.35017500  0.54883200  1
  Si  Si33  1  0.81769500  0.44989100  0.05021800  1
  Si  Si34  1  0.57784300  0.95161700  0.15059000  1
  Si  Si35  1  0.32544400  0.85616700  0.65921900  1
  Si  Si36  1  0.27220200  0.43987000  0.42553200  1
  Si  Si37  1  0.62726600  0.36370000  0.93464400  1
  Si  Si38  1  0.77274000  0.86135700  0.26815700  1
  Si  Si39  1  0.13310800  0.93561600  0.77420200  1
  Si  Si40  1  0.12767800  0.36435800  0.77536800  1
  Si  Si41  1  0.76813600  0.43745000  0.26963600  1
  Si  Si42  1  0.62597000  0.93918200  0.92375100  1
  Si  Si43  1  0.27269900  0.86142500  0.44058300  1
  Si  Si44  1  0.40590600  0.47179200  0.32298900  1
  Si  Si45  1  0.49796300  0.31667200  0.82751000  1
  Si  Si46  1  0.90480700  0.82797900  0.37746300  1
  Si  Si47  1  0.00011900  0.97039900  0.87950300  1
  Si  Si48  1  0.99412600  0.33010200  0.88159300  1
  Si  Si49  1  0.90051400  0.47304200  0.37647100  1
  Si  Si50  1  0.49485900  0.96334000  0.81937800  1
  Si  Si51  1  0.40233600  0.82296200  0.32457700  1
  Si  Si52  1  0.62315600  0.22636800  0.28977500  1
  Si  Si53  1  0.12033700  0.07249300  0.41245000  1
  Si  Si54  1  0.77826000  0.72896400  0.91853700  1
  Si  Si55  1  0.77390800  0.57264700  0.91614700  1
  Si  Si56  1  0.12458300  0.22911800  0.41671500  1
  Si  Si57  1  0.27907000  0.72917400  0.79311800  1
  Si  Si58  1  0.61958300  0.07049100  0.29228900  1
  Si  Si59  1  0.52042200  0.27174800  0.44772400  1
  Si  Si60  1  0.37856900  0.51952900  0.94734800  1
  Si  Si61  1  0.01591800  0.02411100  0.26062300  1
  Si  Si62  1  0.87863800  0.77689300  0.76290000  1
  Si  Si63  1  0.87538400  0.52447300  0.76078000  1
  Si  Si64  1  0.02197100  0.27537200  0.26099300  1
  Si  Si65  1  0.37193100  0.77781700  0.94790100  1
  Si  Si66  1  0.51503500  0.02285200  0.44196900  1
  Si  Si67  1  0.48077900  0.21941100  0.65281200  1
  Si  Si68  1  0.42413600  0.56976300  0.14625100  1
  Si  Si69  1  0.97457800  0.07199500  0.05374800  1
  Si  Si70  1  0.91870500  0.72759600  0.55636900  1
  Si  Si71  1  0.91506000  0.57392900  0.55371300  1
  Si  Si72  1  0.97466600  0.22778300  0.05642700  1
  Si  Si73  1  0.41905300  0.72457700  0.14866100  1
  Si  Si74  1  0.46775900  0.06479600  0.64508200  1
  Si  Si75  1  0.32359900  0.23538800  0.62910000  1
  Si  Si76  1  0.58020400  0.57210700  0.13645400  1
  Si  Si77  1  0.81684000  0.07241300  0.07441100  1
  Si  Si78  1  0.07643300  0.72667700  0.57117200  1
  Si  Si79  1  0.07319600  0.57025900  0.57016900  1
  Si  Si80  1  0.81761900  0.22854800  0.07256800  1
  Si  Si81  1  0.57748000  0.72787500  0.13576000  1
  Si  Si82  1  0.31239500  0.08026200  0.62698600  1
  Si  Si83  1  0.27358200  0.28428100  0.41939200  1
  Si  Si84  1  0.62616500  0.52197700  0.92810600  1
  Si  Si85  1  0.76818300  0.01889300  0.28546900  1
  Si  Si86  1  0.12992500  0.77611800  0.78017900  1
  Si  Si87  1  0.12585200  0.52278200  0.77960900  1
  Si  Si88  1  0.76980200  0.27994500  0.28053900  1
  Si  Si89  1  0.62766700  0.77886000  0.92648000  1
  Si  Si90  1  0.26591100  0.02071600  0.42167200  1
  Si  Si91  1  0.40065100  0.22717100  0.31027700  1
  Si  Si92  1  0.49647100  0.57058700  0.81871200  1
  Si  Si93  1  0.89630200  0.07069300  0.39567800  1
  Si  Si94  1  0.00015800  0.72837200  0.89487300  1
  Si  Si95  1  0.99598700  0.57178200  0.89453600  1
  Si  Si96  1  0.90011900  0.22715500  0.39245000  1
  Si  Si97  1  0.39645400  0.07244000  0.31222100  1
