# generated using pymatgen
data_Si
_symmetry_space_group_name_H-M   'P 1'
_cell_length_a   19.80114000
_cell_length_b   19.80114000
_cell_length_c   14.18779000
_cell_angle_alpha   90.00000000
_cell_angle_beta   90.00000000
_cell_angle_gamma   120.00000000
_symmetry_Int_Tables_number   1
_chemical_formula_structural   Si
_chemical_formula_sum   Si70
_cell_volume   4817.54491207
_cell_formula_units_Z   70
loop_
 _symmetry_equiv_pos_site_id
 _symmetry_equiv_pos_as_xyz
  1  'x, y, z'
loop_
 _atom_site_type_symbol
 _atom_site_label
 _atom_site_symmetry_multiplicity
 _atom_site_fract_x
 _atom_site_fract_y
 _atom_site_fract_z
 _atom_site_occupancy
  Si  Si0  1  0.91111000  0.40998000  0.59500000  1
  Si  Si1  1  0.59002000  0.50113000  0.59500000  1
  Si  Si2  1  0.49887000  0.08889000  0.59500000  1
  Si  Si3  1  0.40998000  0.91111000  0.09500000  1
  Si  Si4  1  0.08889000  0.49887000  0.09500000  1
  Si  Si5  1  0.50113000  0.59002000  0.09500000  1
  Si  Si6  1  0.76750000  0.25253000  0.60091000  1
  Si  Si7  1  0.74747000  0.51497000  0.60091000  1
  Si  Si8  1  0.48503000  0.23250000  0.60091000  1
  Si  Si9  1  0.25253000  0.76750000  0.10091000  1
  Si  Si10  1  0.23250000  0.48503000  0.10091000  1
  Si  Si11  1  0.51497000  0.74747000  0.10091000  1
  Si  Si12  1  0.64947000  0.11566000  0.49164000  1
  Si  Si13  1  0.88434000  0.53381000  0.49164000  1
  Si  Si14  1  0.46619000  0.35053000  0.49164000  1
  Si  Si15  1  0.11566000  0.64947000  0.99164000  1
  Si  Si16  1  0.35053000  0.46619000  0.99164000  1
  Si  Si17  1  0.53381000  0.88434000  0.99164000  1
  Si  Si18  1  0.73147000  0.01139000  0.75088000  1
  Si  Si19  1  0.98861000  0.72008000  0.75088000  1
  Si  Si20  1  0.27992000  0.26853000  0.75088000  1
  Si  Si21  1  0.01139000  0.73147000  0.25088000  1
  Si  Si22  1  0.26853000  0.27992000  0.25088000  1
  Si  Si23  1  0.72008000  0.98861000  0.25088000  1
  Si  Si24  1  0.92844000  0.43082000  0.99469000  1
  Si  Si25  1  0.56918000  0.49762000  0.99469000  1
  Si  Si26  1  0.50238000  0.07156000  0.99469000  1
  Si  Si27  1  0.43082000  0.92844000  0.49469000  1
  Si  Si28  1  0.07156000  0.50238000  0.49469000  1
  Si  Si29  1  0.49762000  0.56918000  0.49469000  1
  Si  Si30  1  0.77463000  0.28303000  0.95811000  1
  Si  Si31  1  0.71697000  0.49160000  0.95811000  1
  Si  Si32  1  0.50840000  0.22537000  0.95811000  1
  Si  Si33  1  0.28303000  0.77463000  0.45811000  1
  Si  Si34  1  0.22537000  0.50840000  0.45811000  1
  Si  Si35  1  0.49160000  0.71697000  0.45811000  1
  Si  Si36  1  0.67341000  0.15080000  0.08569000  1
  Si  Si37  1  0.84920000  0.52261000  0.08569000  1
  Si  Si38  1  0.47739000  0.32659000  0.08569000  1
  Si  Si39  1  0.15080000  0.67341000  0.58569000  1
  Si  Si40  1  0.32659000  0.47739000  0.58569000  1
  Si  Si41  1  0.52261000  0.84920000  0.58569000  1
  Si  Si42  1  0.73046000  0.16587000  0.79600000  1
  Si  Si43  1  0.83413000  0.56459000  0.79600000  1
  Si  Si44  1  0.43541000  0.26954000  0.79600000  1
  Si  Si45  1  0.16587000  0.73046000  0.29600000  1
  Si  Si46  1  0.26954000  0.43541000  0.29600000  1
  Si  Si47  1  0.56459000  0.83413000  0.29600000  1
  Si  Si48  1  0.55097000  0.06503000  0.78803000  1
  Si  Si49  1  0.93497000  0.48594000  0.78803000  1
  Si  Si50  1  0.51406000  0.44903000  0.78803000  1
  Si  Si51  1  0.06503000  0.55097000  0.28803000  1
  Si  Si52  1  0.44903000  0.51406000  0.28803000  1
  Si  Si53  1  0.48594000  0.93497000  0.28803000  1
  Si  Si54  1  0.44053000  0.35306000  0.28092000  1
  Si  Si55  1  0.64694000  0.08747000  0.28092000  1
  Si  Si56  1  0.91253000  0.55947000  0.28092000  1
  Si  Si57  1  0.35306000  0.44053000  0.78092000  1
  Si  Si58  1  0.55947000  0.91253000  0.78092000  1
  Si  Si59  1  0.08747000  0.64694000  0.78092000  1
  Si  Si60  1  0.68113000  0.98165000  0.54152000  1
  Si  Si61  1  0.01835000  0.69948000  0.54152000  1
  Si  Si62  1  0.30052000  0.31887000  0.54152000  1
  Si  Si63  1  0.98165000  0.68113000  0.04152000  1
  Si  Si64  1  0.31887000  0.30052000  0.04152000  1
  Si  Si65  1  0.69948000  0.01835000  0.04152000  1
  Si  Si66  1  0.66666667  0.33333333  0.64008000  1
  Si  Si67  1  0.33333333  0.66666667  0.14008000  1
  Si  Si68  1  0.66666667  0.33333333  0.86675000  1
  Si  Si69  1  0.33333333  0.66666667  0.36675000  1
