# generated using pymatgen
data_SiO4
_symmetry_space_group_name_H-M   'P 1'
_cell_length_a   19.80114000
_cell_length_b   19.80114000
_cell_length_c   14.18779000
_cell_angle_alpha   90.00000000
_cell_angle_beta   90.00000000
_cell_angle_gamma   120.00000000
_symmetry_Int_Tables_number   1
_chemical_formula_structural   SiO4
_chemical_formula_sum   'Si1 O4'
_cell_volume   4817.54491207
_cell_formula_units_Z   1
loop_
 _symmetry_equiv_pos_site_id
 _symmetry_equiv_pos_as_xyz
  1  'x, y, z'
loop_
 _atom_site_type_symbol
 _atom_site_label
 _atom_site_symmetry_multiplicity
 _atom_site_fract_x
 _atom_site_fract_y
 _atom_site_fract_z
 _atom_site_occupancy
  Si  Si0  1  0.50113000  0.59002000  0.09500000  1
  O  O1  1  0.41603000  0.54082000  0.04804000  1
  O  O2  1  0.49400000  0.57880000  0.20770000  1
  O  O3  1  0.53562000  0.68117000  0.07213000  1
  O  O4  1  0.55786000  0.56119000  0.05263000  1
