# generated using pymatgen
data_SiO4
_symmetry_space_group_name_H-M   'P 1'
_cell_length_a   19.80114000
_cell_length_b   19.80114000
_cell_length_c   14.18779000
_cell_angle_alpha   90.00000000
_cell_angle_beta   90.00000000
_cell_angle_gamma   120.00000000
_symmetry_Int_Tables_number   1
_chemical_formula_structural   SiO4
_chemical_formula_sum   'Si1 O4'
_cell_volume   4817.54491207
_cell_formula_units_Z   1
loop_
 _symmetry_equiv_pos_site_id
 _symmetry_equiv_pos_as_xyz
  1  'x, y, z'
loop_
 _atom_site_type_symbol
 _atom_site_label
 _atom_site_symmetry_multiplicity
 _atom_site_fract_x
 _atom_site_fract_y
 _atom_site_fract_z
 _atom_site_occupancy
  Si  Si0  1  0.51497000  0.74747000  0.10091000  1
  O  O1  1  0.53562000  0.68117000  0.07213000  1
  O  O2  1  0.42181000  0.71046000  0.10233000  1
  O  O3  1  0.55149000  0.81680000  0.02434000  1
  O  O4  1  0.55094000  0.78231000  0.20297000  1
