# generated using pymatgen
data_SiO4
_symmetry_space_group_name_H-M   'P 1'
_cell_length_a   19.80114000
_cell_length_b   19.80114000
_cell_length_c   14.18779000
_cell_angle_alpha   90.00000000
_cell_angle_beta   90.00000000
_cell_angle_gamma   120.00000000
_symmetry_Int_Tables_number   1
_chemical_formula_structural   SiO4
_chemical_formula_sum   'Si1 O4'
_cell_volume   4817.54491207
_cell_formula_units_Z   1
loop_
 _symmetry_equiv_pos_site_id
 _symmetry_equiv_pos_as_xyz
  1  'x, y, z'
loop_
 _atom_site_type_symbol
 _atom_site_label
 _atom_site_symmetry_multiplicity
 _atom_site_fract_x
 _atom_site_fract_y
 _atom_site_fract_z
 _atom_site_occupancy
  Si  Si0  1  0.28303000  0.77463000  0.45811000  1
  O  O1  1  0.34013000  0.86188000  0.49561000  1
  O  O2  1  0.33397000  0.74367000  0.40440000  1
  O  O3  1  0.23883000  0.71839000  0.54624000  1
  O  O4  1  0.21882000  0.77300000  0.38705000  1
