# generated using pymatgen
data_O2
_symmetry_space_group_name_H-M   'P 1'
_cell_length_a   10.32900000
_cell_length_b   10.32900000
_cell_length_c   34.36400000
_cell_angle_alpha   90.00000000
_cell_angle_beta   90.00000000
_cell_angle_gamma   90.00000000
_symmetry_Int_Tables_number   1
_chemical_formula_structural   O2
_chemical_formula_sum   O128
_cell_volume   3666.23471372
_cell_formula_units_Z   64
loop_
 _symmetry_equiv_pos_site_id
 _symmetry_equiv_pos_as_xyz
  1  'x, y, z'
loop_
 _atom_site_type_symbol
 _atom_site_label
 _atom_site_symmetry_multiplicity
 _atom_site_fract_x
 _atom_site_fract_y
 _atom_site_fract_z
 _atom_site_occupancy
  O  O0  1  0.16730000  0.25000000  0.14860000  1
  O  O1  1  0.66730000  0.75000000  0.64860000  1
  O  O2  1  0.50000000  0.41730000  0.89860000  1
  O  O3  1  0.00000000  0.91730000  0.39860000  1
  O  O4  1  0.33270000  0.75000000  0.64860000  1
  O  O5  1  0.83270000  0.25000000  0.14860000  1
  O  O6  1  0.00000000  0.58270000  0.39860000  1
  O  O7  1  0.50000000  0.08270000  0.89860000  1
  O  O8  1  0.83270000  0.75000000  0.85140000  1
  O  O9  1  0.33270000  0.25000000  0.35140000  1
  O  O10  1  0.50000000  0.58270000  0.10140000  1
  O  O11  1  0.00000000  0.08270000  0.60140000  1
  O  O12  1  0.66730000  0.25000000  0.35140000  1
  O  O13  1  0.16730000  0.75000000  0.85140000  1
  O  O14  1  0.00000000  0.41730000  0.60140000  1
  O  O15  1  0.50000000  0.91730000  0.10140000  1
  O  O16  1  0.37260000  0.12260000  0.12500000  1
  O  O17  1  0.87260000  0.62260000  0.62500000  1
  O  O18  1  0.62740000  0.62260000  0.87500000  1
  O  O19  1  0.12740000  0.12260000  0.37500000  1
  O  O20  1  0.12740000  0.87740000  0.62500000  1
  O  O21  1  0.62740000  0.37740000  0.12500000  1
  O  O22  1  0.87260000  0.37740000  0.37500000  1
  O  O23  1  0.37260000  0.87740000  0.87500000  1
  O  O24  1  0.62740000  0.12260000  0.12500000  1
  O  O25  1  0.12740000  0.62260000  0.62500000  1
  O  O26  1  0.37260000  0.62260000  0.87500000  1
  O  O27  1  0.87260000  0.12260000  0.37500000  1
  O  O28  1  0.87260000  0.87740000  0.62500000  1
  O  O29  1  0.37260000  0.37740000  0.12500000  1
  O  O30  1  0.12740000  0.37740000  0.37500000  1
  O  O31  1  0.62740000  0.87740000  0.87500000  1
  O  O32  1  0.23080000  0.25000000  0.07440000  1
  O  O33  1  0.73080000  0.75000000  0.57440000  1
  O  O34  1  0.50000000  0.48080000  0.82440000  1
  O  O35  1  0.00000000  0.98080000  0.32440000  1
  O  O36  1  0.26920000  0.75000000  0.57440000  1
  O  O37  1  0.76920000  0.25000000  0.07440000  1
  O  O38  1  0.00000000  0.51920000  0.32440000  1
  O  O39  1  0.50000000  0.01920000  0.82440000  1
  O  O40  1  0.76920000  0.75000000  0.92560000  1
  O  O41  1  0.26920000  0.25000000  0.42560000  1
  O  O42  1  0.50000000  0.51920000  0.17560000  1
  O  O43  1  0.00000000  0.01920000  0.67560000  1
  O  O44  1  0.73080000  0.25000000  0.42560000  1
  O  O45  1  0.23080000  0.75000000  0.92560000  1
  O  O46  1  0.00000000  0.48080000  0.67560000  1
  O  O47  1  0.50000000  0.98080000  0.17560000  1
  O  O48  1  0.00000000  0.25000000  0.20650000  1
  O  O49  1  0.50000000  0.75000000  0.70650000  1
  O  O50  1  0.50000000  0.25000000  0.95650000  1
  O  O51  1  0.00000000  0.75000000  0.45650000  1
  O  O52  1  0.00000000  0.75000000  0.79350000  1
  O  O53  1  0.50000000  0.25000000  0.29350000  1
  O  O54  1  0.50000000  0.75000000  0.04350000  1
  O  O55  1  0.00000000  0.25000000  0.54350000  1
  O  O56  1  0.21920000  0.12260000  0.21290000  1
  O  O57  1  0.71920000  0.62260000  0.71290000  1
  O  O58  1  0.62740000  0.46920000  0.96290000  1
  O  O59  1  0.12740000  0.96920000  0.46290000  1
  O  O60  1  0.28080000  0.87740000  0.71290000  1
  O  O61  1  0.78080000  0.37740000  0.21290000  1
  O  O62  1  0.87260000  0.53080000  0.46290000  1
  O  O63  1  0.37260000  0.03080000  0.96290000  1
  O  O64  1  0.78080000  0.12260000  0.21290000  1
  O  O65  1  0.28080000  0.62260000  0.71290000  1
  O  O66  1  0.37260000  0.46920000  0.96290000  1
  O  O67  1  0.87260000  0.96920000  0.46290000  1
  O  O68  1  0.71920000  0.87740000  0.71290000  1
  O  O69  1  0.21920000  0.37740000  0.21290000  1
  O  O70  1  0.12740000  0.53080000  0.46290000  1
  O  O71  1  0.62740000  0.03080000  0.96290000  1
  O  O72  1  0.78080000  0.87740000  0.78710000  1
  O  O73  1  0.28080000  0.37740000  0.28710000  1
  O  O74  1  0.37260000  0.53080000  0.03710000  1
  O  O75  1  0.87260000  0.03080000  0.53710000  1
  O  O76  1  0.71920000  0.12260000  0.28710000  1
  O  O77  1  0.21920000  0.62260000  0.78710000  1
  O  O78  1  0.12740000  0.46920000  0.53710000  1
  O  O79  1  0.62740000  0.96920000  0.03710000  1
  O  O80  1  0.21920000  0.87740000  0.78710000  1
  O  O81  1  0.71920000  0.37740000  0.28710000  1
  O  O82  1  0.62740000  0.53080000  0.03710000  1
  O  O83  1  0.12740000  0.03080000  0.53710000  1
  O  O84  1  0.28080000  0.12260000  0.28710000  1
  O  O85  1  0.78080000  0.62260000  0.78710000  1
  O  O86  1  0.87260000  0.46920000  0.53710000  1
  O  O87  1  0.37260000  0.96920000  0.03710000  1
  O  O88  1  0.19190000  0.87700000  0.99070000  1
  O  O89  1  0.69190000  0.37700000  0.49070000  1
  O  O90  1  0.87300000  0.44190000  0.74070000  1
  O  O91  1  0.37300000  0.94190000  0.24070000  1
  O  O92  1  0.30810000  0.12300000  0.49070000  1
  O  O93  1  0.80810000  0.62300000  0.99070000  1
  O  O94  1  0.62700000  0.55810000  0.24070000  1
  O  O95  1  0.12700000  0.05810000  0.74070000  1
  O  O96  1  0.80810000  0.87700000  0.99070000  1
  O  O97  1  0.30810000  0.37700000  0.49070000  1
  O  O98  1  0.12700000  0.44190000  0.74070000  1
  O  O99  1  0.62700000  0.94190000  0.24070000  1
  O  O100  1  0.69190000  0.12300000  0.49070000  1
  O  O101  1  0.19190000  0.62300000  0.99070000  1
  O  O102  1  0.37300000  0.55810000  0.24070000  1
  O  O103  1  0.87300000  0.05810000  0.74070000  1
  O  O104  1  0.80810000  0.12300000  0.00930000  1
  O  O105  1  0.30810000  0.62300000  0.50930000  1
  O  O106  1  0.12700000  0.55810000  0.25930000  1
  O  O107  1  0.62700000  0.05810000  0.75930000  1
  O  O108  1  0.69190000  0.87700000  0.50930000  1
  O  O109  1  0.19190000  0.37700000  0.00930000  1
  O  O110  1  0.37300000  0.44190000  0.75930000  1
  O  O111  1  0.87300000  0.94190000  0.25930000  1
  O  O112  1  0.19190000  0.12300000  0.00930000  1
  O  O113  1  0.69190000  0.62300000  0.50930000  1
  O  O114  1  0.87300000  0.55810000  0.25930000  1
  O  O115  1  0.37300000  0.05810000  0.75930000  1
  O  O116  1  0.30810000  0.87700000  0.50930000  1
  O  O117  1  0.80810000  0.37700000  0.00930000  1
  O  O118  1  0.62700000  0.44190000  0.75930000  1
  O  O119  1  0.12700000  0.94190000  0.25930000  1
  O  O120  1  0.00000000  0.25000000  0.04240000  1
  O  O121  1  0.50000000  0.75000000  0.54240000  1
  O  O122  1  0.50000000  0.25000000  0.79240000  1
  O  O123  1  0.00000000  0.75000000  0.29240000  1
  O  O124  1  0.00000000  0.75000000  0.95760000  1
  O  O125  1  0.50000000  0.25000000  0.45760000  1
  O  O126  1  0.50000000  0.75000000  0.20760000  1
  O  O127  1  0.00000000  0.25000000  0.70760000  1
