# generated using pymatgen
data_Si
_symmetry_space_group_name_H-M   'P 1'
_cell_length_a   10.32900000
_cell_length_b   10.32900000
_cell_length_c   34.36400000
_cell_angle_alpha   90.00000000
_cell_angle_beta   90.00000000
_cell_angle_gamma   90.00000000
_symmetry_Int_Tables_number   1
_chemical_formula_structural   Si
_chemical_formula_sum   Si64
_cell_volume   3666.23471372
_cell_formula_units_Z   64
loop_
 _symmetry_equiv_pos_site_id
 _symmetry_equiv_pos_as_xyz
  1  'x, y, z'
loop_
 _atom_site_type_symbol
 _atom_site_label
 _atom_site_symmetry_multiplicity
 _atom_site_fract_x
 _atom_site_fract_y
 _atom_site_fract_z
 _atom_site_occupancy
  Si  Si0  1  0.28600000  0.25000000  0.11820000  1
  Si  Si1  1  0.78600000  0.75000000  0.61820000  1
  Si  Si2  1  0.50000000  0.53600000  0.86820000  1
  Si  Si3  1  0.00000000  0.03600000  0.36820000  1
  Si  Si4  1  0.21400000  0.75000000  0.61820000  1
  Si  Si5  1  0.71400000  0.25000000  0.11820000  1
  Si  Si6  1  0.00000000  0.46400000  0.36820000  1
  Si  Si7  1  0.50000000  0.96400000  0.86820000  1
  Si  Si8  1  0.71400000  0.75000000  0.88180000  1
  Si  Si9  1  0.21400000  0.25000000  0.38180000  1
  Si  Si10  1  0.50000000  0.46400000  0.13180000  1
  Si  Si11  1  0.00000000  0.96400000  0.63180000  1
  Si  Si12  1  0.78600000  0.25000000  0.38180000  1
  Si  Si13  1  0.28600000  0.75000000  0.88180000  1
  Si  Si14  1  0.00000000  0.53600000  0.63180000  1
  Si  Si15  1  0.50000000  0.03600000  0.13180000  1
  Si  Si16  1  0.15120000  0.25000000  0.19530000  1
  Si  Si17  1  0.65120000  0.75000000  0.69530000  1
  Si  Si18  1  0.50000000  0.40120000  0.94530000  1
  Si  Si19  1  0.00000000  0.90120000  0.44530000  1
  Si  Si20  1  0.34880000  0.75000000  0.69530000  1
  Si  Si21  1  0.84880000  0.25000000  0.19530000  1
  Si  Si22  1  0.00000000  0.59880000  0.44530000  1
  Si  Si23  1  0.50000000  0.09880000  0.94530000  1
  Si  Si24  1  0.84880000  0.75000000  0.80470000  1
  Si  Si25  1  0.34880000  0.25000000  0.30470000  1
  Si  Si26  1  0.50000000  0.59880000  0.05470000  1
  Si  Si27  1  0.00000000  0.09880000  0.55470000  1
  Si  Si28  1  0.65120000  0.25000000  0.30470000  1
  Si  Si29  1  0.15120000  0.75000000  0.80470000  1
  Si  Si30  1  0.00000000  0.40120000  0.55470000  1
  Si  Si31  1  0.50000000  0.90120000  0.05470000  1
  Si  Si32  1  0.28240000  0.00000000  0.00000000  1
  Si  Si33  1  0.78240000  0.50000000  0.50000000  1
  Si  Si34  1  0.75000000  0.53240000  0.75000000  1
  Si  Si35  1  0.25000000  0.03240000  0.25000000  1
  Si  Si36  1  0.21760000  0.00000000  0.50000000  1
  Si  Si37  1  0.71760000  0.50000000  0.00000000  1
  Si  Si38  1  0.75000000  0.46760000  0.25000000  1
  Si  Si39  1  0.25000000  0.96760000  0.75000000  1
  Si  Si40  1  0.71760000  0.00000000  0.00000000  1
  Si  Si41  1  0.21760000  0.50000000  0.50000000  1
  Si  Si42  1  0.25000000  0.53240000  0.75000000  1
  Si  Si43  1  0.75000000  0.03240000  0.25000000  1
  Si  Si44  1  0.78240000  0.00000000  0.50000000  1
  Si  Si45  1  0.28240000  0.50000000  0.00000000  1
  Si  Si46  1  0.25000000  0.46760000  0.25000000  1
  Si  Si47  1  0.75000000  0.96760000  0.75000000  1
  Si  Si48  1  0.15310000  0.25000000  0.03380000  1
  Si  Si49  1  0.65310000  0.75000000  0.53380000  1
  Si  Si50  1  0.50000000  0.40310000  0.78380000  1
  Si  Si51  1  0.00000000  0.90310000  0.28380000  1
  Si  Si52  1  0.34690000  0.75000000  0.53380000  1
  Si  Si53  1  0.84690000  0.25000000  0.03380000  1
  Si  Si54  1  0.00000000  0.59690000  0.28380000  1
  Si  Si55  1  0.50000000  0.09690000  0.78380000  1
  Si  Si56  1  0.84690000  0.75000000  0.96620000  1
  Si  Si57  1  0.34690000  0.25000000  0.46620000  1
  Si  Si58  1  0.50000000  0.59690000  0.21620000  1
  Si  Si59  1  0.00000000  0.09690000  0.71620000  1
  Si  Si60  1  0.65310000  0.25000000  0.46620000  1
  Si  Si61  1  0.15310000  0.75000000  0.96620000  1
  Si  Si62  1  0.00000000  0.40310000  0.71620000  1
  Si  Si63  1  0.50000000  0.90310000  0.21620000  1
