# generated using pymatgen
data_Si
_symmetry_space_group_name_H-M   'P 1'
_cell_length_a   13.67700000
_cell_length_b   12.60700000
_cell_length_c   18.49700000
_cell_angle_alpha   90.00000000
_cell_angle_beta   90.00000000
_cell_angle_gamma   90.00000000
_symmetry_Int_Tables_number   1
_chemical_formula_structural   Si
_chemical_formula_sum   Si48
_cell_volume   3189.36259368
_cell_formula_units_Z   48
loop_
 _symmetry_equiv_pos_site_id
 _symmetry_equiv_pos_as_xyz
  1  'x, y, z'
loop_
 _atom_site_type_symbol
 _atom_site_label
 _atom_site_symmetry_multiplicity
 _atom_site_fract_x
 _atom_site_fract_y
 _atom_site_fract_z
 _atom_site_occupancy
  Si  Si0  1  0.11260000  0.03690000  0.16640000  1
  Si  Si1  1  0.61260000  0.53690000  0.16640000  1
  Si  Si2  1  0.88740000  0.03690000  0.16640000  1
  Si  Si3  1  0.38740000  0.53690000  0.16640000  1
  Si  Si4  1  0.11260000  0.96310000  0.66640000  1
  Si  Si5  1  0.61260000  0.46310000  0.66640000  1
  Si  Si6  1  0.88740000  0.96310000  0.66640000  1
  Si  Si7  1  0.38740000  0.46310000  0.66640000  1
  Si  Si8  1  0.88740000  0.96310000  0.83360000  1
  Si  Si9  1  0.38740000  0.46310000  0.83360000  1
  Si  Si10  1  0.11260000  0.96310000  0.83360000  1
  Si  Si11  1  0.61260000  0.46310000  0.83360000  1
  Si  Si12  1  0.88740000  0.03690000  0.33360000  1
  Si  Si13  1  0.38740000  0.53690000  0.33360000  1
  Si  Si14  1  0.11260000  0.03690000  0.33360000  1
  Si  Si15  1  0.61260000  0.53690000  0.33360000  1
  Si  Si16  1  0.11280000  0.77110000  0.93940000  1
  Si  Si17  1  0.61280000  0.27110000  0.93940000  1
  Si  Si18  1  0.88720000  0.77110000  0.93940000  1
  Si  Si19  1  0.38720000  0.27110000  0.93940000  1
  Si  Si20  1  0.11280000  0.22890000  0.43940000  1
  Si  Si21  1  0.61280000  0.72890000  0.43940000  1
  Si  Si22  1  0.88720000  0.22890000  0.43940000  1
  Si  Si23  1  0.38720000  0.72890000  0.43940000  1
  Si  Si24  1  0.88720000  0.22890000  0.06060000  1
  Si  Si25  1  0.38720000  0.72890000  0.06060000  1
  Si  Si26  1  0.11280000  0.22890000  0.06060000  1
  Si  Si27  1  0.61280000  0.72890000  0.06060000  1
  Si  Si28  1  0.88720000  0.77110000  0.56060000  1
  Si  Si29  1  0.38720000  0.27110000  0.56060000  1
  Si  Si30  1  0.11280000  0.77110000  0.56060000  1
  Si  Si31  1  0.61280000  0.27110000  0.56060000  1
  Si  Si32  1  0.77330000  0.90420000  0.05210000  1
  Si  Si33  1  0.27330000  0.40420000  0.05210000  1
  Si  Si34  1  0.22670000  0.90420000  0.05210000  1
  Si  Si35  1  0.72670000  0.40420000  0.05210000  1
  Si  Si36  1  0.77330000  0.09580000  0.55210000  1
  Si  Si37  1  0.27330000  0.59580000  0.55210000  1
  Si  Si38  1  0.22670000  0.09580000  0.55210000  1
  Si  Si39  1  0.72670000  0.59580000  0.55210000  1
  Si  Si40  1  0.22670000  0.09580000  0.94790000  1
  Si  Si41  1  0.72670000  0.59580000  0.94790000  1
  Si  Si42  1  0.77330000  0.09580000  0.94790000  1
  Si  Si43  1  0.27330000  0.59580000  0.94790000  1
  Si  Si44  1  0.22670000  0.90420000  0.44790000  1
  Si  Si45  1  0.72670000  0.40420000  0.44790000  1
  Si  Si46  1  0.77330000  0.90420000  0.44790000  1
  Si  Si47  1  0.27330000  0.40420000  0.44790000  1
