# generated using pymatgen
data_SiO4
_symmetry_space_group_name_H-M   'P 1'
_cell_length_a   24.86727000
_cell_length_b   24.86727000
_cell_length_c   24.86727000
_cell_angle_alpha   90.00000000
_cell_angle_beta   90.00000000
_cell_angle_gamma   90.00000000
_symmetry_Int_Tables_number   1
_chemical_formula_structural   SiO4
_chemical_formula_sum   'Si1 O4'
_cell_volume   15377.45020563
_cell_formula_units_Z   1
loop_
 _symmetry_equiv_pos_site_id
 _symmetry_equiv_pos_as_xyz
  1  'x, y, z'
loop_
 _atom_site_type_symbol
 _atom_site_label
 _atom_site_symmetry_multiplicity
 _atom_site_fract_x
 _atom_site_fract_y
 _atom_site_fract_z
 _atom_site_occupancy
  Si  Si0  1  0.43788000  0.65009000  0.13810000  1
  O  O1  1  0.42858000  0.66656000  0.20000000  1
  O  O2  1  0.42199000  0.69953000  0.09949000  1
  O  O3  1  0.50000000  0.63452000  0.12880000  1
  O  O4  1  0.40105000  0.59895000  0.12335000  1
