# generated using pymatgen
data_SiO4
_symmetry_space_group_name_H-M   'P 1'
_cell_length_a   24.86727000
_cell_length_b   24.86727000
_cell_length_c   24.86727000
_cell_angle_alpha   90.00000000
_cell_angle_beta   90.00000000
_cell_angle_gamma   90.00000000
_symmetry_Int_Tables_number   1
_chemical_formula_structural   SiO4
_chemical_formula_sum   'Si1 O4'
_cell_volume   15377.45020563
_cell_formula_units_Z   1
loop_
 _symmetry_equiv_pos_site_id
 _symmetry_equiv_pos_as_xyz
  1  'x, y, z'
loop_
 _atom_site_type_symbol
 _atom_site_label
 _atom_site_symmetry_multiplicity
 _atom_site_fract_x
 _atom_site_fract_y
 _atom_site_fract_z
 _atom_site_occupancy
  Si  Si0  1  0.63810000  0.84991000  0.06212000  1
  O  O1  1  0.70000000  0.83344000  0.07142000  1
  O  O2  1  0.59949000  0.80047000  0.07801000  1
  O  O3  1  0.62880000  0.86548000  0.00000000  1
  O  O4  1  0.62335000  0.90105000  0.09895000  1
