# generated using pymatgen
data_O2
_symmetry_space_group_name_H-M   'P 1'
_cell_length_a   24.86727000
_cell_length_b   24.86727000
_cell_length_c   24.86727000
_cell_angle_alpha   90.00000000
_cell_angle_beta   90.00000000
_cell_angle_gamma   90.00000000
_symmetry_Int_Tables_number   1
_chemical_formula_structural   O2
_chemical_formula_sum   O480
_cell_volume   15377.45020563
_cell_formula_units_Z   240
loop_
 _symmetry_equiv_pos_site_id
 _symmetry_equiv_pos_as_xyz
  1  'x, y, z'
loop_
 _atom_site_type_symbol
 _atom_site_label
 _atom_site_symmetry_multiplicity
 _atom_site_fract_x
 _atom_site_fract_y
 _atom_site_fract_z
 _atom_site_occupancy
  O  O0  1  0.30000000  0.16656000  0.07142000  1
  O  O1  1  0.07142000  0.30000000  0.16656000  1
  O  O2  1  0.16656000  0.07142000  0.30000000  1
  O  O3  1  0.30000000  0.07142000  0.16656000  1
  O  O4  1  0.16656000  0.30000000  0.07142000  1
  O  O5  1  0.07142000  0.16656000  0.30000000  1
  O  O6  1  0.30000000  0.83344000  0.92858000  1
  O  O7  1  0.07142000  0.70000000  0.83344000  1
  O  O8  1  0.16656000  0.92858000  0.70000000  1
  O  O9  1  0.30000000  0.92858000  0.83344000  1
  O  O10  1  0.16656000  0.70000000  0.92858000  1
  O  O11  1  0.07142000  0.83344000  0.70000000  1
  O  O12  1  0.70000000  0.16656000  0.92858000  1
  O  O13  1  0.92858000  0.30000000  0.83344000  1
  O  O14  1  0.83344000  0.07142000  0.70000000  1
  O  O15  1  0.70000000  0.07142000  0.83344000  1
  O  O16  1  0.83344000  0.30000000  0.92858000  1
  O  O17  1  0.92858000  0.16656000  0.70000000  1
  O  O18  1  0.70000000  0.83344000  0.07142000  1
  O  O19  1  0.92858000  0.70000000  0.16656000  1
  O  O20  1  0.83344000  0.92858000  0.30000000  1
  O  O21  1  0.70000000  0.92858000  0.16656000  1
  O  O22  1  0.83344000  0.70000000  0.07142000  1
  O  O23  1  0.92858000  0.83344000  0.30000000  1
  O  O24  1  0.70000000  0.83344000  0.92858000  1
  O  O25  1  0.92858000  0.70000000  0.83344000  1
  O  O26  1  0.83344000  0.92858000  0.70000000  1
  O  O27  1  0.70000000  0.92858000  0.83344000  1
  O  O28  1  0.83344000  0.70000000  0.92858000  1
  O  O29  1  0.92858000  0.83344000  0.70000000  1
  O  O30  1  0.70000000  0.16656000  0.07142000  1
  O  O31  1  0.92858000  0.30000000  0.16656000  1
  O  O32  1  0.83344000  0.07142000  0.30000000  1
  O  O33  1  0.70000000  0.07142000  0.16656000  1
  O  O34  1  0.83344000  0.30000000  0.07142000  1
  O  O35  1  0.92858000  0.16656000  0.30000000  1
  O  O36  1  0.30000000  0.83344000  0.07142000  1
  O  O37  1  0.07142000  0.70000000  0.16656000  1
  O  O38  1  0.16656000  0.92858000  0.30000000  1
  O  O39  1  0.30000000  0.92858000  0.16656000  1
  O  O40  1  0.16656000  0.70000000  0.07142000  1
  O  O41  1  0.07142000  0.83344000  0.30000000  1
  O  O42  1  0.30000000  0.16656000  0.92858000  1
  O  O43  1  0.07142000  0.30000000  0.83344000  1
  O  O44  1  0.16656000  0.07142000  0.70000000  1
  O  O45  1  0.30000000  0.07142000  0.83344000  1
  O  O46  1  0.16656000  0.30000000  0.92858000  1
  O  O47  1  0.07142000  0.16656000  0.70000000  1
  O  O48  1  0.80000000  0.66656000  0.57142000  1
  O  O49  1  0.57142000  0.80000000  0.66656000  1
  O  O50  1  0.66656000  0.57142000  0.80000000  1
  O  O51  1  0.80000000  0.57142000  0.66656000  1
  O  O52  1  0.66656000  0.80000000  0.57142000  1
  O  O53  1  0.57142000  0.66656000  0.80000000  1
  O  O54  1  0.80000000  0.33344000  0.42858000  1
  O  O55  1  0.57142000  0.20000000  0.33344000  1
  O  O56  1  0.66656000  0.42858000  0.20000000  1
  O  O57  1  0.80000000  0.42858000  0.33344000  1
  O  O58  1  0.66656000  0.20000000  0.42858000  1
  O  O59  1  0.57142000  0.33344000  0.20000000  1
  O  O60  1  0.20000000  0.66656000  0.42858000  1
  O  O61  1  0.42858000  0.80000000  0.33344000  1
  O  O62  1  0.33344000  0.57142000  0.20000000  1
  O  O63  1  0.20000000  0.57142000  0.33344000  1
  O  O64  1  0.33344000  0.80000000  0.42858000  1
  O  O65  1  0.42858000  0.66656000  0.20000000  1
  O  O66  1  0.20000000  0.33344000  0.57142000  1
  O  O67  1  0.42858000  0.20000000  0.66656000  1
  O  O68  1  0.33344000  0.42858000  0.80000000  1
  O  O69  1  0.20000000  0.42858000  0.66656000  1
  O  O70  1  0.33344000  0.20000000  0.57142000  1
  O  O71  1  0.42858000  0.33344000  0.80000000  1
  O  O72  1  0.20000000  0.33344000  0.42858000  1
  O  O73  1  0.42858000  0.20000000  0.33344000  1
  O  O74  1  0.33344000  0.42858000  0.20000000  1
  O  O75  1  0.20000000  0.42858000  0.33344000  1
  O  O76  1  0.33344000  0.20000000  0.42858000  1
  O  O77  1  0.42858000  0.33344000  0.20000000  1
  O  O78  1  0.20000000  0.66656000  0.57142000  1
  O  O79  1  0.42858000  0.80000000  0.66656000  1
  O  O80  1  0.33344000  0.57142000  0.80000000  1
  O  O81  1  0.20000000  0.57142000  0.66656000  1
  O  O82  1  0.33344000  0.80000000  0.57142000  1
  O  O83  1  0.42858000  0.66656000  0.80000000  1
  O  O84  1  0.80000000  0.33344000  0.57142000  1
  O  O85  1  0.57142000  0.20000000  0.66656000  1
  O  O86  1  0.66656000  0.42858000  0.80000000  1
  O  O87  1  0.80000000  0.42858000  0.66656000  1
  O  O88  1  0.66656000  0.20000000  0.57142000  1
  O  O89  1  0.57142000  0.33344000  0.80000000  1
  O  O90  1  0.80000000  0.66656000  0.42858000  1
  O  O91  1  0.57142000  0.80000000  0.33344000  1
  O  O92  1  0.66656000  0.57142000  0.20000000  1
  O  O93  1  0.80000000  0.57142000  0.33344000  1
  O  O94  1  0.66656000  0.80000000  0.42858000  1
  O  O95  1  0.57142000  0.66656000  0.20000000  1
  O  O96  1  0.40051000  0.19953000  0.07801000  1
  O  O97  1  0.07801000  0.40051000  0.19953000  1
  O  O98  1  0.19953000  0.07801000  0.40051000  1
  O  O99  1  0.40051000  0.07801000  0.19953000  1
  O  O100  1  0.19953000  0.40051000  0.07801000  1
  O  O101  1  0.07801000  0.19953000  0.40051000  1
  O  O102  1  0.40051000  0.80047000  0.92199000  1
  O  O103  1  0.07801000  0.59949000  0.80047000  1
  O  O104  1  0.19953000  0.92199000  0.59949000  1
  O  O105  1  0.40051000  0.92199000  0.80047000  1
  O  O106  1  0.19953000  0.59949000  0.92199000  1
  O  O107  1  0.07801000  0.80047000  0.59949000  1
  O  O108  1  0.59949000  0.19953000  0.92199000  1
  O  O109  1  0.92199000  0.40051000  0.80047000  1
  O  O110  1  0.80047000  0.07801000  0.59949000  1
  O  O111  1  0.59949000  0.07801000  0.80047000  1
  O  O112  1  0.80047000  0.40051000  0.92199000  1
  O  O113  1  0.92199000  0.19953000  0.59949000  1
  O  O114  1  0.59949000  0.80047000  0.07801000  1
  O  O115  1  0.92199000  0.59949000  0.19953000  1
  O  O116  1  0.80047000  0.92199000  0.40051000  1
  O  O117  1  0.59949000  0.92199000  0.19953000  1
  O  O118  1  0.80047000  0.59949000  0.07801000  1
  O  O119  1  0.92199000  0.80047000  0.40051000  1
  O  O120  1  0.59949000  0.80047000  0.92199000  1
  O  O121  1  0.92199000  0.59949000  0.80047000  1
  O  O122  1  0.80047000  0.92199000  0.59949000  1
  O  O123  1  0.59949000  0.92199000  0.80047000  1
  O  O124  1  0.80047000  0.59949000  0.92199000  1
  O  O125  1  0.92199000  0.80047000  0.59949000  1
  O  O126  1  0.59949000  0.19953000  0.07801000  1
  O  O127  1  0.92199000  0.40051000  0.19953000  1
  O  O128  1  0.80047000  0.07801000  0.40051000  1
  O  O129  1  0.59949000  0.07801000  0.19953000  1
  O  O130  1  0.80047000  0.40051000  0.07801000  1
  O  O131  1  0.92199000  0.19953000  0.40051000  1
  O  O132  1  0.40051000  0.80047000  0.07801000  1
  O  O133  1  0.07801000  0.59949000  0.19953000  1
  O  O134  1  0.19953000  0.92199000  0.40051000  1
  O  O135  1  0.40051000  0.92199000  0.19953000  1
  O  O136  1  0.19953000  0.59949000  0.07801000  1
  O  O137  1  0.07801000  0.80047000  0.40051000  1
  O  O138  1  0.40051000  0.19953000  0.92199000  1
  O  O139  1  0.07801000  0.40051000  0.80047000  1
  O  O140  1  0.19953000  0.07801000  0.59949000  1
  O  O141  1  0.40051000  0.07801000  0.80047000  1
  O  O142  1  0.19953000  0.40051000  0.92199000  1
  O  O143  1  0.07801000  0.19953000  0.59949000  1
  O  O144  1  0.90051000  0.69953000  0.57801000  1
  O  O145  1  0.57801000  0.90051000  0.69953000  1
  O  O146  1  0.69953000  0.57801000  0.90051000  1
  O  O147  1  0.90051000  0.57801000  0.69953000  1
  O  O148  1  0.69953000  0.90051000  0.57801000  1
  O  O149  1  0.57801000  0.69953000  0.90051000  1
  O  O150  1  0.90051000  0.30047000  0.42199000  1
  O  O151  1  0.57801000  0.09949000  0.30047000  1
  O  O152  1  0.69953000  0.42199000  0.09949000  1
  O  O153  1  0.90051000  0.42199000  0.30047000  1
  O  O154  1  0.69953000  0.09949000  0.42199000  1
  O  O155  1  0.57801000  0.30047000  0.09949000  1
  O  O156  1  0.09949000  0.69953000  0.42199000  1
  O  O157  1  0.42199000  0.90051000  0.30047000  1
  O  O158  1  0.30047000  0.57801000  0.09949000  1
  O  O159  1  0.09949000  0.57801000  0.30047000  1
  O  O160  1  0.30047000  0.90051000  0.42199000  1
  O  O161  1  0.42199000  0.69953000  0.09949000  1
  O  O162  1  0.09949000  0.30047000  0.57801000  1
  O  O163  1  0.42199000  0.09949000  0.69953000  1
  O  O164  1  0.30047000  0.42199000  0.90051000  1
  O  O165  1  0.09949000  0.42199000  0.69953000  1
  O  O166  1  0.30047000  0.09949000  0.57801000  1
  O  O167  1  0.42199000  0.30047000  0.90051000  1
  O  O168  1  0.09949000  0.30047000  0.42199000  1
  O  O169  1  0.42199000  0.09949000  0.30047000  1
  O  O170  1  0.30047000  0.42199000  0.09949000  1
  O  O171  1  0.09949000  0.42199000  0.30047000  1
  O  O172  1  0.30047000  0.09949000  0.42199000  1
  O  O173  1  0.42199000  0.30047000  0.09949000  1
  O  O174  1  0.09949000  0.69953000  0.57801000  1
  O  O175  1  0.42199000  0.90051000  0.69953000  1
  O  O176  1  0.30047000  0.57801000  0.90051000  1
  O  O177  1  0.09949000  0.57801000  0.69953000  1
  O  O178  1  0.30047000  0.90051000  0.57801000  1
  O  O179  1  0.42199000  0.69953000  0.90051000  1
  O  O180  1  0.90051000  0.30047000  0.57801000  1
  O  O181  1  0.57801000  0.09949000  0.69953000  1
  O  O182  1  0.69953000  0.42199000  0.90051000  1
  O  O183  1  0.90051000  0.42199000  0.69953000  1
  O  O184  1  0.69953000  0.09949000  0.57801000  1
  O  O185  1  0.57801000  0.30047000  0.90051000  1
  O  O186  1  0.90051000  0.69953000  0.42199000  1
  O  O187  1  0.57801000  0.90051000  0.30047000  1
  O  O188  1  0.69953000  0.57801000  0.09949000  1
  O  O189  1  0.90051000  0.57801000  0.30047000  1
  O  O190  1  0.69953000  0.90051000  0.42199000  1
  O  O191  1  0.57801000  0.69953000  0.09949000  1
  O  O192  1  0.37120000  0.13452000  0.00000000  1
  O  O193  1  0.00000000  0.37120000  0.13452000  1
  O  O194  1  0.13452000  0.00000000  0.37120000  1
  O  O195  1  0.37120000  0.00000000  0.13452000  1
  O  O196  1  0.13452000  0.37120000  0.00000000  1
  O  O197  1  0.00000000  0.13452000  0.37120000  1
  O  O198  1  0.37120000  0.86548000  0.00000000  1
  O  O199  1  0.00000000  0.62880000  0.86548000  1
  O  O200  1  0.13452000  0.00000000  0.62880000  1
  O  O201  1  0.37120000  0.00000000  0.86548000  1
  O  O202  1  0.13452000  0.62880000  0.00000000  1
  O  O203  1  0.00000000  0.86548000  0.62880000  1
  O  O204  1  0.62880000  0.13452000  0.00000000  1
  O  O205  1  0.00000000  0.37120000  0.86548000  1
  O  O206  1  0.86548000  0.00000000  0.62880000  1
  O  O207  1  0.62880000  0.00000000  0.86548000  1
  O  O208  1  0.86548000  0.37120000  0.00000000  1
  O  O209  1  0.00000000  0.13452000  0.62880000  1
  O  O210  1  0.62880000  0.86548000  0.00000000  1
  O  O211  1  0.00000000  0.62880000  0.13452000  1
  O  O212  1  0.86548000  0.00000000  0.37120000  1
  O  O213  1  0.62880000  0.00000000  0.13452000  1
  O  O214  1  0.86548000  0.62880000  0.00000000  1
  O  O215  1  0.00000000  0.86548000  0.37120000  1
  O  O216  1  0.87120000  0.63452000  0.50000000  1
  O  O217  1  0.50000000  0.87120000  0.63452000  1
  O  O218  1  0.63452000  0.50000000  0.87120000  1
  O  O219  1  0.87120000  0.50000000  0.63452000  1
  O  O220  1  0.63452000  0.87120000  0.50000000  1
  O  O221  1  0.50000000  0.63452000  0.87120000  1
  O  O222  1  0.87120000  0.36548000  0.50000000  1
  O  O223  1  0.50000000  0.12880000  0.36548000  1
  O  O224  1  0.63452000  0.50000000  0.12880000  1
  O  O225  1  0.87120000  0.50000000  0.36548000  1
  O  O226  1  0.63452000  0.12880000  0.50000000  1
  O  O227  1  0.50000000  0.36548000  0.12880000  1
  O  O228  1  0.12880000  0.63452000  0.50000000  1
  O  O229  1  0.50000000  0.87120000  0.36548000  1
  O  O230  1  0.36548000  0.50000000  0.12880000  1
  O  O231  1  0.12880000  0.50000000  0.36548000  1
  O  O232  1  0.36548000  0.87120000  0.50000000  1
  O  O233  1  0.50000000  0.63452000  0.12880000  1
  O  O234  1  0.12880000  0.36548000  0.50000000  1
  O  O235  1  0.50000000  0.12880000  0.63452000  1
  O  O236  1  0.36548000  0.50000000  0.87120000  1
  O  O237  1  0.12880000  0.50000000  0.63452000  1
  O  O238  1  0.36548000  0.12880000  0.50000000  1
  O  O239  1  0.50000000  0.36548000  0.87120000  1
  O  O240  1  0.50000000  0.23465000  0.07158000  1
  O  O241  1  0.07158000  0.50000000  0.23465000  1
  O  O242  1  0.23465000  0.07158000  0.50000000  1
  O  O243  1  0.50000000  0.07158000  0.23465000  1
  O  O244  1  0.23465000  0.50000000  0.07158000  1
  O  O245  1  0.07158000  0.23465000  0.50000000  1
  O  O246  1  0.50000000  0.76535000  0.92842000  1
  O  O247  1  0.07158000  0.50000000  0.76535000  1
  O  O248  1  0.23465000  0.92842000  0.50000000  1
  O  O249  1  0.50000000  0.92842000  0.76535000  1
  O  O250  1  0.23465000  0.50000000  0.92842000  1
  O  O251  1  0.07158000  0.76535000  0.50000000  1
  O  O252  1  0.50000000  0.23465000  0.92842000  1
  O  O253  1  0.92842000  0.50000000  0.76535000  1
  O  O254  1  0.76535000  0.07158000  0.50000000  1
  O  O255  1  0.50000000  0.07158000  0.76535000  1
  O  O256  1  0.76535000  0.50000000  0.92842000  1
  O  O257  1  0.92842000  0.23465000  0.50000000  1
  O  O258  1  0.50000000  0.76535000  0.07158000  1
  O  O259  1  0.92842000  0.50000000  0.23465000  1
  O  O260  1  0.76535000  0.92842000  0.50000000  1
  O  O261  1  0.50000000  0.92842000  0.23465000  1
  O  O262  1  0.76535000  0.50000000  0.07158000  1
  O  O263  1  0.92842000  0.76535000  0.50000000  1
  O  O264  1  0.00000000  0.73465000  0.57158000  1
  O  O265  1  0.57158000  0.00000000  0.73465000  1
  O  O266  1  0.73465000  0.57158000  0.00000000  1
  O  O267  1  0.00000000  0.57158000  0.73465000  1
  O  O268  1  0.73465000  0.00000000  0.57158000  1
  O  O269  1  0.57158000  0.73465000  0.00000000  1
  O  O270  1  0.00000000  0.26535000  0.42842000  1
  O  O271  1  0.57158000  0.00000000  0.26535000  1
  O  O272  1  0.73465000  0.42842000  0.00000000  1
  O  O273  1  0.00000000  0.42842000  0.26535000  1
  O  O274  1  0.73465000  0.00000000  0.42842000  1
  O  O275  1  0.57158000  0.26535000  0.00000000  1
  O  O276  1  0.00000000  0.73465000  0.42842000  1
  O  O277  1  0.42842000  0.00000000  0.26535000  1
  O  O278  1  0.26535000  0.57158000  0.00000000  1
  O  O279  1  0.00000000  0.57158000  0.26535000  1
  O  O280  1  0.26535000  0.00000000  0.42842000  1
  O  O281  1  0.42842000  0.73465000  0.00000000  1
  O  O282  1  0.00000000  0.26535000  0.57158000  1
  O  O283  1  0.42842000  0.00000000  0.73465000  1
  O  O284  1  0.26535000  0.42842000  0.00000000  1
  O  O285  1  0.00000000  0.42842000  0.73465000  1
  O  O286  1  0.26535000  0.00000000  0.57158000  1
  O  O287  1  0.42842000  0.26535000  0.00000000  1
  O  O288  1  0.22843000  0.13534000  0.00000000  1
  O  O289  1  0.00000000  0.22843000  0.13534000  1
  O  O290  1  0.13534000  0.00000000  0.22843000  1
  O  O291  1  0.22843000  0.00000000  0.13534000  1
  O  O292  1  0.13534000  0.22843000  0.00000000  1
  O  O293  1  0.00000000  0.13534000  0.22843000  1
  O  O294  1  0.22843000  0.86466000  0.00000000  1
  O  O295  1  0.00000000  0.77157000  0.86466000  1
  O  O296  1  0.13534000  0.00000000  0.77157000  1
  O  O297  1  0.22843000  0.00000000  0.86466000  1
  O  O298  1  0.13534000  0.77157000  0.00000000  1
  O  O299  1  0.00000000  0.86466000  0.77157000  1
  O  O300  1  0.77157000  0.13534000  0.00000000  1
  O  O301  1  0.00000000  0.22843000  0.86466000  1
  O  O302  1  0.86466000  0.00000000  0.77157000  1
  O  O303  1  0.77157000  0.00000000  0.86466000  1
  O  O304  1  0.86466000  0.22843000  0.00000000  1
  O  O305  1  0.00000000  0.13534000  0.77157000  1
  O  O306  1  0.77157000  0.86466000  0.00000000  1
  O  O307  1  0.00000000  0.77157000  0.13534000  1
  O  O308  1  0.86466000  0.00000000  0.22843000  1
  O  O309  1  0.77157000  0.00000000  0.13534000  1
  O  O310  1  0.86466000  0.77157000  0.00000000  1
  O  O311  1  0.00000000  0.86466000  0.22843000  1
  O  O312  1  0.72843000  0.63534000  0.50000000  1
  O  O313  1  0.50000000  0.72843000  0.63534000  1
  O  O314  1  0.63534000  0.50000000  0.72843000  1
  O  O315  1  0.72843000  0.50000000  0.63534000  1
  O  O316  1  0.63534000  0.72843000  0.50000000  1
  O  O317  1  0.50000000  0.63534000  0.72843000  1
  O  O318  1  0.72843000  0.36466000  0.50000000  1
  O  O319  1  0.50000000  0.27157000  0.36466000  1
  O  O320  1  0.63534000  0.50000000  0.27157000  1
  O  O321  1  0.72843000  0.50000000  0.36466000  1
  O  O322  1  0.63534000  0.27157000  0.50000000  1
  O  O323  1  0.50000000  0.36466000  0.27157000  1
  O  O324  1  0.27157000  0.63534000  0.50000000  1
  O  O325  1  0.50000000  0.72843000  0.36466000  1
  O  O326  1  0.36466000  0.50000000  0.27157000  1
  O  O327  1  0.27157000  0.50000000  0.36466000  1
  O  O328  1  0.36466000  0.72843000  0.50000000  1
  O  O329  1  0.50000000  0.63534000  0.27157000  1
  O  O330  1  0.27157000  0.36466000  0.50000000  1
  O  O331  1  0.50000000  0.27157000  0.63534000  1
  O  O332  1  0.36466000  0.50000000  0.72843000  1
  O  O333  1  0.27157000  0.50000000  0.63534000  1
  O  O334  1  0.36466000  0.27157000  0.50000000  1
  O  O335  1  0.50000000  0.36466000  0.72843000  1
  O  O336  1  0.37665000  0.09895000  0.09895000  1
  O  O337  1  0.09895000  0.37665000  0.09895000  1
  O  O338  1  0.09895000  0.09895000  0.37665000  1
  O  O339  1  0.37665000  0.90105000  0.90105000  1
  O  O340  1  0.09895000  0.62335000  0.90105000  1
  O  O341  1  0.09895000  0.90105000  0.62335000  1
  O  O342  1  0.62335000  0.09895000  0.90105000  1
  O  O343  1  0.90105000  0.37665000  0.90105000  1
  O  O344  1  0.90105000  0.09895000  0.62335000  1
  O  O345  1  0.62335000  0.90105000  0.09895000  1
  O  O346  1  0.90105000  0.62335000  0.09895000  1
  O  O347  1  0.90105000  0.90105000  0.37665000  1
  O  O348  1  0.62335000  0.90105000  0.90105000  1
  O  O349  1  0.90105000  0.62335000  0.90105000  1
  O  O350  1  0.90105000  0.90105000  0.62335000  1
  O  O351  1  0.62335000  0.09895000  0.09895000  1
  O  O352  1  0.90105000  0.37665000  0.09895000  1
  O  O353  1  0.90105000  0.09895000  0.37665000  1
  O  O354  1  0.37665000  0.90105000  0.09895000  1
  O  O355  1  0.09895000  0.62335000  0.09895000  1
  O  O356  1  0.09895000  0.90105000  0.37665000  1
  O  O357  1  0.37665000  0.09895000  0.90105000  1
  O  O358  1  0.09895000  0.37665000  0.90105000  1
  O  O359  1  0.09895000  0.09895000  0.62335000  1
  O  O360  1  0.87665000  0.59895000  0.59895000  1
  O  O361  1  0.59895000  0.87665000  0.59895000  1
  O  O362  1  0.59895000  0.59895000  0.87665000  1
  O  O363  1  0.87665000  0.40105000  0.40105000  1
  O  O364  1  0.59895000  0.12335000  0.40105000  1
  O  O365  1  0.59895000  0.40105000  0.12335000  1
  O  O366  1  0.12335000  0.59895000  0.40105000  1
  O  O367  1  0.40105000  0.87665000  0.40105000  1
  O  O368  1  0.40105000  0.59895000  0.12335000  1
  O  O369  1  0.12335000  0.40105000  0.59895000  1
  O  O370  1  0.40105000  0.12335000  0.59895000  1
  O  O371  1  0.40105000  0.40105000  0.87665000  1
  O  O372  1  0.12335000  0.40105000  0.40105000  1
  O  O373  1  0.40105000  0.12335000  0.40105000  1
  O  O374  1  0.40105000  0.40105000  0.12335000  1
  O  O375  1  0.12335000  0.59895000  0.59895000  1
  O  O376  1  0.40105000  0.87665000  0.59895000  1
  O  O377  1  0.40105000  0.59895000  0.87665000  1
  O  O378  1  0.87665000  0.40105000  0.59895000  1
  O  O379  1  0.59895000  0.12335000  0.59895000  1
  O  O380  1  0.59895000  0.40105000  0.87665000  1
  O  O381  1  0.87665000  0.59895000  0.40105000  1
  O  O382  1  0.59895000  0.87665000  0.40105000  1
  O  O383  1  0.59895000  0.59895000  0.12335000  1
  O  O384  1  0.20008000  0.20008000  0.07868000  1
  O  O385  1  0.07868000  0.20008000  0.20008000  1
  O  O386  1  0.20008000  0.07868000  0.20008000  1
  O  O387  1  0.20008000  0.79992000  0.92132000  1
  O  O388  1  0.07868000  0.79992000  0.79992000  1
  O  O389  1  0.20008000  0.92132000  0.79992000  1
  O  O390  1  0.79992000  0.20008000  0.92132000  1
  O  O391  1  0.92132000  0.20008000  0.79992000  1
  O  O392  1  0.79992000  0.07868000  0.79992000  1
  O  O393  1  0.79992000  0.79992000  0.07868000  1
  O  O394  1  0.92132000  0.79992000  0.20008000  1
  O  O395  1  0.79992000  0.92132000  0.20008000  1
  O  O396  1  0.79992000  0.79992000  0.92132000  1
  O  O397  1  0.92132000  0.79992000  0.79992000  1
  O  O398  1  0.79992000  0.92132000  0.79992000  1
  O  O399  1  0.79992000  0.20008000  0.07868000  1
  O  O400  1  0.92132000  0.20008000  0.20008000  1
  O  O401  1  0.79992000  0.07868000  0.20008000  1
  O  O402  1  0.20008000  0.79992000  0.07868000  1
  O  O403  1  0.07868000  0.79992000  0.20008000  1
  O  O404  1  0.20008000  0.92132000  0.20008000  1
  O  O405  1  0.20008000  0.20008000  0.92132000  1
  O  O406  1  0.07868000  0.20008000  0.79992000  1
  O  O407  1  0.20008000  0.07868000  0.79992000  1
  O  O408  1  0.70008000  0.70008000  0.57868000  1
  O  O409  1  0.57868000  0.70008000  0.70008000  1
  O  O410  1  0.70008000  0.57868000  0.70008000  1
  O  O411  1  0.70008000  0.29992000  0.42132000  1
  O  O412  1  0.57868000  0.29992000  0.29992000  1
  O  O413  1  0.70008000  0.42132000  0.29992000  1
  O  O414  1  0.29992000  0.70008000  0.42132000  1
  O  O415  1  0.42132000  0.70008000  0.29992000  1
  O  O416  1  0.29992000  0.57868000  0.29992000  1
  O  O417  1  0.29992000  0.29992000  0.57868000  1
  O  O418  1  0.42132000  0.29992000  0.70008000  1
  O  O419  1  0.29992000  0.42132000  0.70008000  1
  O  O420  1  0.29992000  0.29992000  0.42132000  1
  O  O421  1  0.42132000  0.29992000  0.29992000  1
  O  O422  1  0.29992000  0.42132000  0.29992000  1
  O  O423  1  0.29992000  0.70008000  0.57868000  1
  O  O424  1  0.42132000  0.70008000  0.70008000  1
  O  O425  1  0.29992000  0.57868000  0.70008000  1
  O  O426  1  0.70008000  0.29992000  0.57868000  1
  O  O427  1  0.57868000  0.29992000  0.70008000  1
  O  O428  1  0.70008000  0.42132000  0.70008000  1
  O  O429  1  0.70008000  0.70008000  0.42132000  1
  O  O430  1  0.57868000  0.70008000  0.29992000  1
  O  O431  1  0.70008000  0.57868000  0.29992000  1
  O  O432  1  0.22339000  0.09905000  0.09905000  1
  O  O433  1  0.09905000  0.22339000  0.09905000  1
  O  O434  1  0.09905000  0.09905000  0.22339000  1
  O  O435  1  0.22339000  0.90095000  0.90095000  1
  O  O436  1  0.09905000  0.77661000  0.90095000  1
  O  O437  1  0.09905000  0.90095000  0.77661000  1
  O  O438  1  0.77661000  0.09905000  0.90095000  1
  O  O439  1  0.90095000  0.22339000  0.90095000  1
  O  O440  1  0.90095000  0.09905000  0.77661000  1
  O  O441  1  0.77661000  0.90095000  0.09905000  1
  O  O442  1  0.90095000  0.77661000  0.09905000  1
  O  O443  1  0.90095000  0.90095000  0.22339000  1
  O  O444  1  0.77661000  0.90095000  0.90095000  1
  O  O445  1  0.90095000  0.77661000  0.90095000  1
  O  O446  1  0.90095000  0.90095000  0.77661000  1
  O  O447  1  0.77661000  0.09905000  0.09905000  1
  O  O448  1  0.90095000  0.22339000  0.09905000  1
  O  O449  1  0.90095000  0.09905000  0.22339000  1
  O  O450  1  0.22339000  0.90095000  0.09905000  1
  O  O451  1  0.09905000  0.77661000  0.09905000  1
  O  O452  1  0.09905000  0.90095000  0.22339000  1
  O  O453  1  0.22339000  0.09905000  0.90095000  1
  O  O454  1  0.09905000  0.22339000  0.90095000  1
  O  O455  1  0.09905000  0.09905000  0.77661000  1
  O  O456  1  0.72339000  0.59905000  0.59905000  1
  O  O457  1  0.59905000  0.72339000  0.59905000  1
  O  O458  1  0.59905000  0.59905000  0.72339000  1
  O  O459  1  0.72339000  0.40095000  0.40095000  1
  O  O460  1  0.59905000  0.27661000  0.40095000  1
  O  O461  1  0.59905000  0.40095000  0.27661000  1
  O  O462  1  0.27661000  0.59905000  0.40095000  1
  O  O463  1  0.40095000  0.72339000  0.40095000  1
  O  O464  1  0.40095000  0.59905000  0.27661000  1
  O  O465  1  0.27661000  0.40095000  0.59905000  1
  O  O466  1  0.40095000  0.27661000  0.59905000  1
  O  O467  1  0.40095000  0.40095000  0.72339000  1
  O  O468  1  0.27661000  0.40095000  0.40095000  1
  O  O469  1  0.40095000  0.27661000  0.40095000  1
  O  O470  1  0.40095000  0.40095000  0.27661000  1
  O  O471  1  0.27661000  0.59905000  0.59905000  1
  O  O472  1  0.40095000  0.72339000  0.59905000  1
  O  O473  1  0.40095000  0.59905000  0.72339000  1
  O  O474  1  0.72339000  0.40095000  0.59905000  1
  O  O475  1  0.59905000  0.27661000  0.59905000  1
  O  O476  1  0.59905000  0.40095000  0.72339000  1
  O  O477  1  0.72339000  0.59905000  0.40095000  1
  O  O478  1  0.59905000  0.72339000  0.40095000  1
  O  O479  1  0.59905000  0.59905000  0.27661000  1
