# generated using pymatgen
data_Si
_symmetry_space_group_name_H-M   'P 1'
_cell_length_a   24.86727000
_cell_length_b   24.86727000
_cell_length_c   24.86727000
_cell_angle_alpha   90.00000000
_cell_angle_beta   90.00000000
_cell_angle_gamma   90.00000000
_symmetry_Int_Tables_number   1
_chemical_formula_structural   Si
_chemical_formula_sum   Si240
_cell_volume   15377.45020563
_cell_formula_units_Z   240
loop_
 _symmetry_equiv_pos_site_id
 _symmetry_equiv_pos_as_xyz
  1  'x, y, z'
loop_
 _atom_site_type_symbol
 _atom_site_label
 _atom_site_symmetry_multiplicity
 _atom_site_fract_x
 _atom_site_fract_y
 _atom_site_fract_z
 _atom_site_occupancy
  Si  Si0  1  0.36190000  0.15009000  0.06212000  1
  Si  Si1  1  0.06212000  0.36190000  0.15009000  1
  Si  Si2  1  0.15009000  0.06212000  0.36190000  1
  Si  Si3  1  0.36190000  0.06212000  0.15009000  1
  Si  Si4  1  0.15009000  0.36190000  0.06212000  1
  Si  Si5  1  0.06212000  0.15009000  0.36190000  1
  Si  Si6  1  0.36190000  0.84991000  0.93788000  1
  Si  Si7  1  0.06212000  0.63810000  0.84991000  1
  Si  Si8  1  0.15009000  0.93788000  0.63810000  1
  Si  Si9  1  0.36190000  0.93788000  0.84991000  1
  Si  Si10  1  0.15009000  0.63810000  0.93788000  1
  Si  Si11  1  0.06212000  0.84991000  0.63810000  1
  Si  Si12  1  0.63810000  0.15009000  0.93788000  1
  Si  Si13  1  0.93788000  0.36190000  0.84991000  1
  Si  Si14  1  0.84991000  0.06212000  0.63810000  1
  Si  Si15  1  0.63810000  0.06212000  0.84991000  1
  Si  Si16  1  0.84991000  0.36190000  0.93788000  1
  Si  Si17  1  0.93788000  0.15009000  0.63810000  1
  Si  Si18  1  0.63810000  0.84991000  0.06212000  1
  Si  Si19  1  0.93788000  0.63810000  0.15009000  1
  Si  Si20  1  0.84991000  0.93788000  0.36190000  1
  Si  Si21  1  0.63810000  0.93788000  0.15009000  1
  Si  Si22  1  0.84991000  0.63810000  0.06212000  1
  Si  Si23  1  0.93788000  0.84991000  0.36190000  1
  Si  Si24  1  0.63810000  0.84991000  0.93788000  1
  Si  Si25  1  0.93788000  0.63810000  0.84991000  1
  Si  Si26  1  0.84991000  0.93788000  0.63810000  1
  Si  Si27  1  0.63810000  0.93788000  0.84991000  1
  Si  Si28  1  0.84991000  0.63810000  0.93788000  1
  Si  Si29  1  0.93788000  0.84991000  0.63810000  1
  Si  Si30  1  0.63810000  0.15009000  0.06212000  1
  Si  Si31  1  0.93788000  0.36190000  0.15009000  1
  Si  Si32  1  0.84991000  0.06212000  0.36190000  1
  Si  Si33  1  0.63810000  0.06212000  0.15009000  1
  Si  Si34  1  0.84991000  0.36190000  0.06212000  1
  Si  Si35  1  0.93788000  0.15009000  0.36190000  1
  Si  Si36  1  0.36190000  0.84991000  0.06212000  1
  Si  Si37  1  0.06212000  0.63810000  0.15009000  1
  Si  Si38  1  0.15009000  0.93788000  0.36190000  1
  Si  Si39  1  0.36190000  0.93788000  0.15009000  1
  Si  Si40  1  0.15009000  0.63810000  0.06212000  1
  Si  Si41  1  0.06212000  0.84991000  0.36190000  1
  Si  Si42  1  0.36190000  0.15009000  0.93788000  1
  Si  Si43  1  0.06212000  0.36190000  0.84991000  1
  Si  Si44  1  0.15009000  0.06212000  0.63810000  1
  Si  Si45  1  0.36190000  0.06212000  0.84991000  1
  Si  Si46  1  0.15009000  0.36190000  0.93788000  1
  Si  Si47  1  0.06212000  0.15009000  0.63810000  1
  Si  Si48  1  0.86190000  0.65009000  0.56212000  1
  Si  Si49  1  0.56212000  0.86190000  0.65009000  1
  Si  Si50  1  0.65009000  0.56212000  0.86190000  1
  Si  Si51  1  0.86190000  0.56212000  0.65009000  1
  Si  Si52  1  0.65009000  0.86190000  0.56212000  1
  Si  Si53  1  0.56212000  0.65009000  0.86190000  1
  Si  Si54  1  0.86190000  0.34991000  0.43788000  1
  Si  Si55  1  0.56212000  0.13810000  0.34991000  1
  Si  Si56  1  0.65009000  0.43788000  0.13810000  1
  Si  Si57  1  0.86190000  0.43788000  0.34991000  1
  Si  Si58  1  0.65009000  0.13810000  0.43788000  1
  Si  Si59  1  0.56212000  0.34991000  0.13810000  1
  Si  Si60  1  0.13810000  0.65009000  0.43788000  1
  Si  Si61  1  0.43788000  0.86190000  0.34991000  1
  Si  Si62  1  0.34991000  0.56212000  0.13810000  1
  Si  Si63  1  0.13810000  0.56212000  0.34991000  1
  Si  Si64  1  0.34991000  0.86190000  0.43788000  1
  Si  Si65  1  0.43788000  0.65009000  0.13810000  1
  Si  Si66  1  0.13810000  0.34991000  0.56212000  1
  Si  Si67  1  0.43788000  0.13810000  0.65009000  1
  Si  Si68  1  0.34991000  0.43788000  0.86190000  1
  Si  Si69  1  0.13810000  0.43788000  0.65009000  1
  Si  Si70  1  0.34991000  0.13810000  0.56212000  1
  Si  Si71  1  0.43788000  0.34991000  0.86190000  1
  Si  Si72  1  0.13810000  0.34991000  0.43788000  1
  Si  Si73  1  0.43788000  0.13810000  0.34991000  1
  Si  Si74  1  0.34991000  0.43788000  0.13810000  1
  Si  Si75  1  0.13810000  0.43788000  0.34991000  1
  Si  Si76  1  0.34991000  0.13810000  0.43788000  1
  Si  Si77  1  0.43788000  0.34991000  0.13810000  1
  Si  Si78  1  0.13810000  0.65009000  0.56212000  1
  Si  Si79  1  0.43788000  0.86190000  0.65009000  1
  Si  Si80  1  0.34991000  0.56212000  0.86190000  1
  Si  Si81  1  0.13810000  0.56212000  0.65009000  1
  Si  Si82  1  0.34991000  0.86190000  0.56212000  1
  Si  Si83  1  0.43788000  0.65009000  0.86190000  1
  Si  Si84  1  0.86190000  0.34991000  0.56212000  1
  Si  Si85  1  0.56212000  0.13810000  0.65009000  1
  Si  Si86  1  0.65009000  0.43788000  0.86190000  1
  Si  Si87  1  0.86190000  0.43788000  0.65009000  1
  Si  Si88  1  0.65009000  0.13810000  0.56212000  1
  Si  Si89  1  0.56212000  0.34991000  0.86190000  1
  Si  Si90  1  0.86190000  0.65009000  0.43788000  1
  Si  Si91  1  0.56212000  0.86190000  0.34991000  1
  Si  Si92  1  0.65009000  0.56212000  0.13810000  1
  Si  Si93  1  0.86190000  0.56212000  0.34991000  1
  Si  Si94  1  0.65009000  0.86190000  0.43788000  1
  Si  Si95  1  0.56212000  0.65009000  0.13810000  1
  Si  Si96  1  0.23802000  0.15026000  0.06225000  1
  Si  Si97  1  0.06225000  0.23802000  0.15026000  1
  Si  Si98  1  0.15026000  0.06225000  0.23802000  1
  Si  Si99  1  0.23802000  0.06225000  0.15026000  1
  Si  Si100  1  0.15026000  0.23802000  0.06225000  1
  Si  Si101  1  0.06225000  0.15026000  0.23802000  1
  Si  Si102  1  0.23802000  0.84974000  0.93775000  1
  Si  Si103  1  0.06225000  0.76198000  0.84974000  1
  Si  Si104  1  0.15026000  0.93775000  0.76198000  1
  Si  Si105  1  0.23802000  0.93775000  0.84974000  1
  Si  Si106  1  0.15026000  0.76198000  0.93775000  1
  Si  Si107  1  0.06225000  0.84974000  0.76198000  1
  Si  Si108  1  0.76198000  0.15026000  0.93775000  1
  Si  Si109  1  0.93775000  0.23802000  0.84974000  1
  Si  Si110  1  0.84974000  0.06225000  0.76198000  1
  Si  Si111  1  0.76198000  0.06225000  0.84974000  1
  Si  Si112  1  0.84974000  0.23802000  0.93775000  1
  Si  Si113  1  0.93775000  0.15026000  0.76198000  1
  Si  Si114  1  0.76198000  0.84974000  0.06225000  1
  Si  Si115  1  0.93775000  0.76198000  0.15026000  1
  Si  Si116  1  0.84974000  0.93775000  0.23802000  1
  Si  Si117  1  0.76198000  0.93775000  0.15026000  1
  Si  Si118  1  0.84974000  0.76198000  0.06225000  1
  Si  Si119  1  0.93775000  0.84974000  0.23802000  1
  Si  Si120  1  0.76198000  0.84974000  0.93775000  1
  Si  Si121  1  0.93775000  0.76198000  0.84974000  1
  Si  Si122  1  0.84974000  0.93775000  0.76198000  1
  Si  Si123  1  0.76198000  0.93775000  0.84974000  1
  Si  Si124  1  0.84974000  0.76198000  0.93775000  1
  Si  Si125  1  0.93775000  0.84974000  0.76198000  1
  Si  Si126  1  0.76198000  0.15026000  0.06225000  1
  Si  Si127  1  0.93775000  0.23802000  0.15026000  1
  Si  Si128  1  0.84974000  0.06225000  0.23802000  1
  Si  Si129  1  0.76198000  0.06225000  0.15026000  1
  Si  Si130  1  0.84974000  0.23802000  0.06225000  1
  Si  Si131  1  0.93775000  0.15026000  0.23802000  1
  Si  Si132  1  0.23802000  0.84974000  0.06225000  1
  Si  Si133  1  0.06225000  0.76198000  0.15026000  1
  Si  Si134  1  0.15026000  0.93775000  0.23802000  1
  Si  Si135  1  0.23802000  0.93775000  0.15026000  1
  Si  Si136  1  0.15026000  0.76198000  0.06225000  1
  Si  Si137  1  0.06225000  0.84974000  0.23802000  1
  Si  Si138  1  0.23802000  0.15026000  0.93775000  1
  Si  Si139  1  0.06225000  0.23802000  0.84974000  1
  Si  Si140  1  0.15026000  0.06225000  0.76198000  1
  Si  Si141  1  0.23802000  0.06225000  0.84974000  1
  Si  Si142  1  0.15026000  0.23802000  0.93775000  1
  Si  Si143  1  0.06225000  0.15026000  0.76198000  1
  Si  Si144  1  0.73802000  0.65026000  0.56225000  1
  Si  Si145  1  0.56225000  0.73802000  0.65026000  1
  Si  Si146  1  0.65026000  0.56225000  0.73802000  1
  Si  Si147  1  0.73802000  0.56225000  0.65026000  1
  Si  Si148  1  0.65026000  0.73802000  0.56225000  1
  Si  Si149  1  0.56225000  0.65026000  0.73802000  1
  Si  Si150  1  0.73802000  0.34974000  0.43775000  1
  Si  Si151  1  0.56225000  0.26198000  0.34974000  1
  Si  Si152  1  0.65026000  0.43775000  0.26198000  1
  Si  Si153  1  0.73802000  0.43775000  0.34974000  1
  Si  Si154  1  0.65026000  0.26198000  0.43775000  1
  Si  Si155  1  0.56225000  0.34974000  0.26198000  1
  Si  Si156  1  0.26198000  0.65026000  0.43775000  1
  Si  Si157  1  0.43775000  0.73802000  0.34974000  1
  Si  Si158  1  0.34974000  0.56225000  0.26198000  1
  Si  Si159  1  0.26198000  0.56225000  0.34974000  1
  Si  Si160  1  0.34974000  0.73802000  0.43775000  1
  Si  Si161  1  0.43775000  0.65026000  0.26198000  1
  Si  Si162  1  0.26198000  0.34974000  0.56225000  1
  Si  Si163  1  0.43775000  0.26198000  0.65026000  1
  Si  Si164  1  0.34974000  0.43775000  0.73802000  1
  Si  Si165  1  0.26198000  0.43775000  0.65026000  1
  Si  Si166  1  0.34974000  0.26198000  0.56225000  1
  Si  Si167  1  0.43775000  0.34974000  0.73802000  1
  Si  Si168  1  0.26198000  0.34974000  0.43775000  1
  Si  Si169  1  0.43775000  0.26198000  0.34974000  1
  Si  Si170  1  0.34974000  0.43775000  0.26198000  1
  Si  Si171  1  0.26198000  0.43775000  0.34974000  1
  Si  Si172  1  0.34974000  0.26198000  0.43775000  1
  Si  Si173  1  0.43775000  0.34974000  0.26198000  1
  Si  Si174  1  0.26198000  0.65026000  0.56225000  1
  Si  Si175  1  0.43775000  0.73802000  0.65026000  1
  Si  Si176  1  0.34974000  0.56225000  0.73802000  1
  Si  Si177  1  0.26198000  0.56225000  0.65026000  1
  Si  Si178  1  0.34974000  0.73802000  0.56225000  1
  Si  Si179  1  0.43775000  0.65026000  0.73802000  1
  Si  Si180  1  0.73802000  0.34974000  0.56225000  1
  Si  Si181  1  0.56225000  0.26198000  0.65026000  1
  Si  Si182  1  0.65026000  0.43775000  0.73802000  1
  Si  Si183  1  0.73802000  0.43775000  0.65026000  1
  Si  Si184  1  0.65026000  0.26198000  0.56225000  1
  Si  Si185  1  0.56225000  0.34974000  0.73802000  1
  Si  Si186  1  0.73802000  0.65026000  0.43775000  1
  Si  Si187  1  0.56225000  0.73802000  0.34974000  1
  Si  Si188  1  0.65026000  0.56225000  0.26198000  1
  Si  Si189  1  0.73802000  0.56225000  0.34974000  1
  Si  Si190  1  0.65026000  0.73802000  0.43775000  1
  Si  Si191  1  0.56225000  0.65026000  0.26198000  1
  Si  Si192  1  0.43783000  0.25000000  0.06217000  1
  Si  Si193  1  0.06217000  0.43783000  0.25000000  1
  Si  Si194  1  0.25000000  0.06217000  0.43783000  1
  Si  Si195  1  0.43783000  0.06217000  0.25000000  1
  Si  Si196  1  0.25000000  0.43783000  0.06217000  1
  Si  Si197  1  0.06217000  0.25000000  0.43783000  1
  Si  Si198  1  0.43783000  0.75000000  0.93783000  1
  Si  Si199  1  0.06217000  0.56217000  0.75000000  1
  Si  Si200  1  0.25000000  0.93783000  0.56217000  1
  Si  Si201  1  0.43783000  0.93783000  0.75000000  1
  Si  Si202  1  0.25000000  0.56217000  0.93783000  1
  Si  Si203  1  0.06217000  0.75000000  0.56217000  1
  Si  Si204  1  0.56217000  0.25000000  0.93783000  1
  Si  Si205  1  0.93783000  0.43783000  0.75000000  1
  Si  Si206  1  0.75000000  0.06217000  0.56217000  1
  Si  Si207  1  0.56217000  0.06217000  0.75000000  1
  Si  Si208  1  0.75000000  0.43783000  0.93783000  1
  Si  Si209  1  0.93783000  0.25000000  0.56217000  1
  Si  Si210  1  0.56217000  0.75000000  0.06217000  1
  Si  Si211  1  0.93783000  0.56217000  0.25000000  1
  Si  Si212  1  0.75000000  0.93783000  0.43783000  1
  Si  Si213  1  0.56217000  0.93783000  0.25000000  1
  Si  Si214  1  0.75000000  0.56217000  0.06217000  1
  Si  Si215  1  0.93783000  0.75000000  0.43783000  1
  Si  Si216  1  0.56217000  0.75000000  0.93783000  1
  Si  Si217  1  0.93783000  0.56217000  0.75000000  1
  Si  Si218  1  0.75000000  0.93783000  0.56217000  1
  Si  Si219  1  0.56217000  0.93783000  0.75000000  1
  Si  Si220  1  0.75000000  0.56217000  0.93783000  1
  Si  Si221  1  0.93783000  0.75000000  0.56217000  1
  Si  Si222  1  0.56217000  0.25000000  0.06217000  1
  Si  Si223  1  0.93783000  0.43783000  0.25000000  1
  Si  Si224  1  0.75000000  0.06217000  0.43783000  1
  Si  Si225  1  0.56217000  0.06217000  0.25000000  1
  Si  Si226  1  0.75000000  0.43783000  0.06217000  1
  Si  Si227  1  0.93783000  0.25000000  0.43783000  1
  Si  Si228  1  0.43783000  0.75000000  0.06217000  1
  Si  Si229  1  0.06217000  0.56217000  0.25000000  1
  Si  Si230  1  0.25000000  0.93783000  0.43783000  1
  Si  Si231  1  0.43783000  0.93783000  0.25000000  1
  Si  Si232  1  0.25000000  0.56217000  0.06217000  1
  Si  Si233  1  0.06217000  0.75000000  0.43783000  1
  Si  Si234  1  0.43783000  0.25000000  0.93783000  1
  Si  Si235  1  0.06217000  0.43783000  0.75000000  1
  Si  Si236  1  0.25000000  0.06217000  0.56217000  1
  Si  Si237  1  0.43783000  0.06217000  0.75000000  1
  Si  Si238  1  0.25000000  0.43783000  0.93783000  1
  Si  Si239  1  0.06217000  0.25000000  0.56217000  1
