# generated using pymatgen
data_Si
_symmetry_space_group_name_H-M   'P 1'
_cell_length_a   8.31200000
_cell_length_b   18.72900000
_cell_length_c   13.39200000
_cell_angle_alpha   90.00000000
_cell_angle_beta   90.00000000
_cell_angle_gamma   90.00000000
_symmetry_Int_Tables_number   1
_chemical_formula_structural   Si
_chemical_formula_sum   Si40
_cell_volume   2084.80559962
_cell_formula_units_Z   40
loop_
 _symmetry_equiv_pos_site_id
 _symmetry_equiv_pos_as_xyz
  1  'x, y, z'
loop_
 _atom_site_type_symbol
 _atom_site_label
 _atom_site_symmetry_multiplicity
 _atom_site_fract_x
 _atom_site_fract_y
 _atom_site_fract_z
 _atom_site_occupancy
  Si  Si0  1  0.81380000  0.03950000  0.14060000  1
  Si  Si1  1  0.31380000  0.53950000  0.64060000  1
  Si  Si2  1  0.18620000  0.03950000  0.14060000  1
  Si  Si3  1  0.68620000  0.53950000  0.64060000  1
  Si  Si4  1  0.81380000  0.46050000  0.14060000  1
  Si  Si5  1  0.31380000  0.96050000  0.64060000  1
  Si  Si6  1  0.18620000  0.46050000  0.14060000  1
  Si  Si7  1  0.68620000  0.96050000  0.64060000  1
  Si  Si8  1  0.18620000  0.96050000  0.85940000  1
  Si  Si9  1  0.68620000  0.46050000  0.35940000  1
  Si  Si10  1  0.81380000  0.96050000  0.85940000  1
  Si  Si11  1  0.31380000  0.46050000  0.35940000  1
  Si  Si12  1  0.18620000  0.53950000  0.85940000  1
  Si  Si13  1  0.68620000  0.03950000  0.35940000  1
  Si  Si14  1  0.81380000  0.53950000  0.85940000  1
  Si  Si15  1  0.31380000  0.03950000  0.35940000  1
  Si  Si16  1  0.31410000  0.09860000  0.94080000  1
  Si  Si17  1  0.81410000  0.59860000  0.44080000  1
  Si  Si18  1  0.68590000  0.09860000  0.94080000  1
  Si  Si19  1  0.18590000  0.59860000  0.44080000  1
  Si  Si20  1  0.31410000  0.40140000  0.94080000  1
  Si  Si21  1  0.81410000  0.90140000  0.44080000  1
  Si  Si22  1  0.68590000  0.40140000  0.94080000  1
  Si  Si23  1  0.18590000  0.90140000  0.44080000  1
  Si  Si24  1  0.68590000  0.90140000  0.05920000  1
  Si  Si25  1  0.18590000  0.40140000  0.55920000  1
  Si  Si26  1  0.31410000  0.90140000  0.05920000  1
  Si  Si27  1  0.81410000  0.40140000  0.55920000  1
  Si  Si28  1  0.68590000  0.59860000  0.05920000  1
  Si  Si29  1  0.18590000  0.09860000  0.55920000  1
  Si  Si30  1  0.31410000  0.59860000  0.05920000  1
  Si  Si31  1  0.81410000  0.09860000  0.55920000  1
  Si  Si32  1  0.80680000  0.25000000  0.86470000  1
  Si  Si33  1  0.30680000  0.75000000  0.36470000  1
  Si  Si34  1  0.19320000  0.25000000  0.86470000  1
  Si  Si35  1  0.69320000  0.75000000  0.36470000  1
  Si  Si36  1  0.19320000  0.75000000  0.13530000  1
  Si  Si37  1  0.69320000  0.25000000  0.63530000  1
  Si  Si38  1  0.80680000  0.75000000  0.13530000  1
  Si  Si39  1  0.30680000  0.25000000  0.63530000  1
