# generated using pymatgen
data_SiO4
_symmetry_space_group_name_H-M   'P 1'
_cell_length_a   8.31200000
_cell_length_b   18.72900000
_cell_length_c   13.39200000
_cell_angle_alpha   90.00000000
_cell_angle_beta   90.00000000
_cell_angle_gamma   90.00000000
_symmetry_Int_Tables_number   1
_chemical_formula_structural   SiO4
_chemical_formula_sum   'Si1 O4'
_cell_volume   2084.80559962
_cell_formula_units_Z   1
loop_
 _symmetry_equiv_pos_site_id
 _symmetry_equiv_pos_as_xyz
  1  'x, y, z'
loop_
 _atom_site_type_symbol
 _atom_site_label
 _atom_site_symmetry_multiplicity
 _atom_site_fract_x
 _atom_site_fract_y
 _atom_site_fract_z
 _atom_site_occupancy
  Si  Si0  1  0.31410000  0.40140000  0.94080000  1
  O  O1  1  0.20440000  0.45470000  0.87550000  1
  O  O2  1  0.29100000  0.41920000  1.05760000  1
  O  O3  1  0.26150000  0.32010000  0.91980000  1
  O  O4  1  0.50000000  0.41200000  0.91050000  1
