# generated using pymatgen
data_Si
_symmetry_space_group_name_H-M   'P 1'
_cell_length_a   12.88003000
_cell_length_b   12.88003000
_cell_length_c   60.60988000
_cell_angle_alpha   90.00000000
_cell_angle_beta   90.00000000
_cell_angle_gamma   120.00000000
_symmetry_Int_Tables_number   1
_chemical_formula_structural   Si
_chemical_formula_sum   Si144
_cell_volume   8707.78715506
_cell_formula_units_Z   144
loop_
 _symmetry_equiv_pos_site_id
 _symmetry_equiv_pos_as_xyz
  1  'x, y, z'
loop_
 _atom_site_type_symbol
 _atom_site_label
 _atom_site_symmetry_multiplicity
 _atom_site_fract_x
 _atom_site_fract_y
 _atom_site_fract_z
 _atom_site_occupancy
  Si  Si0  1  0.23794000  0.23838000  0.02547000  1
  Si  Si1  1  0.76162000  0.99956000  0.02547000  1
  Si  Si2  1  0.00044000  0.76206000  0.02547000  1
  Si  Si3  1  0.76162000  0.76206000  0.02547000  1
  Si  Si4  1  0.23794000  0.99956000  0.02547000  1
  Si  Si5  1  0.00044000  0.23838000  0.02547000  1
  Si  Si6  1  0.76206000  0.76162000  0.97453000  1
  Si  Si7  1  0.23838000  0.00044000  0.97453000  1
  Si  Si8  1  0.99956000  0.23794000  0.97453000  1
  Si  Si9  1  0.23838000  0.23794000  0.97453000  1
  Si  Si10  1  0.76206000  0.00044000  0.97453000  1
  Si  Si11  1  0.99956000  0.76162000  0.97453000  1
  Si  Si12  1  0.57127333  0.90504667  0.69213667  1
  Si  Si13  1  0.09495333  0.66622667  0.69213667  1
  Si  Si14  1  0.33377333  0.42872667  0.69213667  1
  Si  Si15  1  0.09495333  0.42872667  0.69213667  1
  Si  Si16  1  0.57127333  0.66622667  0.69213667  1
  Si  Si17  1  0.33377333  0.90504667  0.69213667  1
  Si  Si18  1  0.09539333  0.42828667  0.64119667  1
  Si  Si19  1  0.57171333  0.66710667  0.64119667  1
  Si  Si20  1  0.33289333  0.90460667  0.64119667  1
  Si  Si21  1  0.57171333  0.90460667  0.64119667  1
  Si  Si22  1  0.09539333  0.66710667  0.64119667  1
  Si  Si23  1  0.33289333  0.42828667  0.64119667  1
  Si  Si24  1  0.90460667  0.57171333  0.35880333  1
  Si  Si25  1  0.42828667  0.33289333  0.35880333  1
  Si  Si26  1  0.66710667  0.09539333  0.35880333  1
  Si  Si27  1  0.42828667  0.09539333  0.35880333  1
  Si  Si28  1  0.90460667  0.33289333  0.35880333  1
  Si  Si29  1  0.66710667  0.57171333  0.35880333  1
  Si  Si30  1  0.42872667  0.09495333  0.30786333  1
  Si  Si31  1  0.90504667  0.33377333  0.30786333  1
  Si  Si32  1  0.66622667  0.57127333  0.30786333  1
  Si  Si33  1  0.90504667  0.57127333  0.30786333  1
  Si  Si34  1  0.42872667  0.33377333  0.30786333  1
  Si  Si35  1  0.66622667  0.09495333  0.30786333  1
  Si  Si36  1  0.42679000  0.33432000  0.93691000  1
  Si  Si37  1  0.66568000  0.09247000  0.93691000  1
  Si  Si38  1  0.90753000  0.57321000  0.93691000  1
  Si  Si39  1  0.66568000  0.57321000  0.93691000  1
  Si  Si40  1  0.42679000  0.09247000  0.93691000  1
  Si  Si41  1  0.90753000  0.33432000  0.93691000  1
  Si  Si42  1  0.57321000  0.66568000  0.06309000  1
  Si  Si43  1  0.33432000  0.90753000  0.06309000  1
  Si  Si44  1  0.09247000  0.42679000  0.06309000  1
  Si  Si45  1  0.33432000  0.42679000  0.06309000  1
  Si  Si46  1  0.57321000  0.90753000  0.06309000  1
  Si  Si47  1  0.09247000  0.66568000  0.06309000  1
  Si  Si48  1  0.76012333  0.00098667  0.60357667  1
  Si  Si49  1  0.99901333  0.75913667  0.60357667  1
  Si  Si50  1  0.24086333  0.23987667  0.60357667  1
  Si  Si51  1  0.99901333  0.23987667  0.60357667  1
  Si  Si52  1  0.76012333  0.75913667  0.60357667  1
  Si  Si53  1  0.24086333  0.00098667  0.60357667  1
  Si  Si54  1  0.90654333  0.33234667  0.72975667  1
  Si  Si55  1  0.66765333  0.57419667  0.72975667  1
  Si  Si56  1  0.42580333  0.09345667  0.72975667  1
  Si  Si57  1  0.66765333  0.09345667  0.72975667  1
  Si  Si58  1  0.90654333  0.57419667  0.72975667  1
  Si  Si59  1  0.42580333  0.33234667  0.72975667  1
  Si  Si60  1  0.09345667  0.66765333  0.27024333  1
  Si  Si61  1  0.33234667  0.42580333  0.27024333  1
  Si  Si62  1  0.57419667  0.90654333  0.27024333  1
  Si  Si63  1  0.33234667  0.90654333  0.27024333  1
  Si  Si64  1  0.09345667  0.42580333  0.27024333  1
  Si  Si65  1  0.57419667  0.66765333  0.27024333  1
  Si  Si66  1  0.23987667  0.99901333  0.39642333  1
  Si  Si67  1  0.00098667  0.24086333  0.39642333  1
  Si  Si68  1  0.75913667  0.76012333  0.39642333  1
  Si  Si69  1  0.00098667  0.76012333  0.39642333  1
  Si  Si70  1  0.23987667  0.24086333  0.39642333  1
  Si  Si71  1  0.75913667  0.99901333  0.39642333  1
  Si  Si72  1  0.42860000  0.33652000  0.10365000  1
  Si  Si73  1  0.66348000  0.09208000  0.10365000  1
  Si  Si74  1  0.90792000  0.57140000  0.10365000  1
  Si  Si75  1  0.66348000  0.57140000  0.10365000  1
  Si  Si76  1  0.42860000  0.09208000  0.10365000  1
  Si  Si77  1  0.90792000  0.33652000  0.10365000  1
  Si  Si78  1  0.57140000  0.66348000  0.89635000  1
  Si  Si79  1  0.33652000  0.90792000  0.89635000  1
  Si  Si80  1  0.09208000  0.42860000  0.89635000  1
  Si  Si81  1  0.33652000  0.42860000  0.89635000  1
  Si  Si82  1  0.57140000  0.90792000  0.89635000  1
  Si  Si83  1  0.09208000  0.66348000  0.89635000  1
  Si  Si84  1  0.76193333  0.00318667  0.77031667  1
  Si  Si85  1  0.99681333  0.75874667  0.77031667  1
  Si  Si86  1  0.24125333  0.23806667  0.77031667  1
  Si  Si87  1  0.99681333  0.23806667  0.77031667  1
  Si  Si88  1  0.76193333  0.75874667  0.77031667  1
  Si  Si89  1  0.24125333  0.00318667  0.77031667  1
  Si  Si90  1  0.90473333  0.33014667  0.56301667  1
  Si  Si91  1  0.66985333  0.57458667  0.56301667  1
  Si  Si92  1  0.42541333  0.09526667  0.56301667  1
  Si  Si93  1  0.66985333  0.09526667  0.56301667  1
  Si  Si94  1  0.90473333  0.57458667  0.56301667  1
  Si  Si95  1  0.42541333  0.33014667  0.56301667  1
  Si  Si96  1  0.09526667  0.66985333  0.43698333  1
  Si  Si97  1  0.33014667  0.42541333  0.43698333  1
  Si  Si98  1  0.57458667  0.90473333  0.43698333  1
  Si  Si99  1  0.33014667  0.90473333  0.43698333  1
  Si  Si100  1  0.09526667  0.42541333  0.43698333  1
  Si  Si101  1  0.57458667  0.66985333  0.43698333  1
  Si  Si102  1  0.23806667  0.99681333  0.22968333  1
  Si  Si103  1  0.00318667  0.24125333  0.22968333  1
  Si  Si104  1  0.75874667  0.76193333  0.22968333  1
  Si  Si105  1  0.00318667  0.76193333  0.22968333  1
  Si  Si106  1  0.23806667  0.24125333  0.22968333  1
  Si  Si107  1  0.75874667  0.99681333  0.22968333  1
  Si  Si108  1  0.42782000  0.33376000  0.85878000  1
  Si  Si109  1  0.66624000  0.09406000  0.85878000  1
  Si  Si110  1  0.90594000  0.57218000  0.85878000  1
  Si  Si111  1  0.66624000  0.57218000  0.85878000  1
  Si  Si112  1  0.42782000  0.09406000  0.85878000  1
  Si  Si113  1  0.90594000  0.33376000  0.85878000  1
  Si  Si114  1  0.57218000  0.66624000  0.14122000  1
  Si  Si115  1  0.33376000  0.90594000  0.14122000  1
  Si  Si116  1  0.09406000  0.42782000  0.14122000  1
  Si  Si117  1  0.33376000  0.42782000  0.14122000  1
  Si  Si118  1  0.57218000  0.90594000  0.14122000  1
  Si  Si119  1  0.09406000  0.66624000  0.14122000  1
  Si  Si120  1  0.76115333  0.00042667  0.52544667  1
  Si  Si121  1  0.99957333  0.76072667  0.52544667  1
  Si  Si122  1  0.23927333  0.23884667  0.52544667  1
  Si  Si123  1  0.99957333  0.23884667  0.52544667  1
  Si  Si124  1  0.76115333  0.76072667  0.52544667  1
  Si  Si125  1  0.23927333  0.00042667  0.52544667  1
  Si  Si126  1  0.90551333  0.33290667  0.80788667  1
  Si  Si127  1  0.66709333  0.57260667  0.80788667  1
  Si  Si128  1  0.42739333  0.09448667  0.80788667  1
  Si  Si129  1  0.66709333  0.09448667  0.80788667  1
  Si  Si130  1  0.90551333  0.57260667  0.80788667  1
  Si  Si131  1  0.42739333  0.33290667  0.80788667  1
  Si  Si132  1  0.09448667  0.66709333  0.19211333  1
  Si  Si133  1  0.33290667  0.42739333  0.19211333  1
  Si  Si134  1  0.57260667  0.90551333  0.19211333  1
  Si  Si135  1  0.33290667  0.90551333  0.19211333  1
  Si  Si136  1  0.09448667  0.42739333  0.19211333  1
  Si  Si137  1  0.57260667  0.66709333  0.19211333  1
  Si  Si138  1  0.23884667  0.99957333  0.47455333  1
  Si  Si139  1  0.00042667  0.23927333  0.47455333  1
  Si  Si140  1  0.76072667  0.76115333  0.47455333  1
  Si  Si141  1  0.00042667  0.76115333  0.47455333  1
  Si  Si142  1  0.23884667  0.23927333  0.47455333  1
  Si  Si143  1  0.76072667  0.99957333  0.47455333  1
