# generated using pymatgen
data_O2
_symmetry_space_group_name_H-M   'P 1'
_cell_length_a   12.88003000
_cell_length_b   12.88003000
_cell_length_c   60.60988000
_cell_angle_alpha   90.00000000
_cell_angle_beta   90.00000000
_cell_angle_gamma   120.00000000
_symmetry_Int_Tables_number   1
_chemical_formula_structural   O2
_chemical_formula_sum   O288
_cell_volume   8707.78715506
_cell_formula_units_Z   144
loop_
 _symmetry_equiv_pos_site_id
 _symmetry_equiv_pos_as_xyz
  1  'x, y, z'
loop_
 _atom_site_type_symbol
 _atom_site_label
 _atom_site_symmetry_multiplicity
 _atom_site_fract_x
 _atom_site_fract_y
 _atom_site_fract_z
 _atom_site_occupancy
  O  O0  1  0.09870000  0.19740000  0.02896000  1
  O  O1  1  0.80260000  0.90130000  0.02896000  1
  O  O2  1  0.09870000  0.90130000  0.02896000  1
  O  O3  1  0.90130000  0.80260000  0.97104000  1
  O  O4  1  0.19740000  0.09870000  0.97104000  1
  O  O5  1  0.90130000  0.09870000  0.97104000  1
  O  O6  1  0.43203333  0.86406667  0.69562667  1
  O  O7  1  0.13593333  0.56796667  0.69562667  1
  O  O8  1  0.43203333  0.56796667  0.69562667  1
  O  O9  1  0.23463333  0.46926667  0.63770667  1
  O  O10  1  0.53073333  0.76536667  0.63770667  1
  O  O11  1  0.23463333  0.76536667  0.63770667  1
  O  O12  1  0.76536667  0.53073333  0.36229333  1
  O  O13  1  0.46926667  0.23463333  0.36229333  1
  O  O14  1  0.76536667  0.23463333  0.36229333  1
  O  O15  1  0.56796667  0.13593333  0.30437333  1
  O  O16  1  0.86406667  0.43203333  0.30437333  1
  O  O17  1  0.56796667  0.43203333  0.30437333  1
  O  O18  1  0.31927000  0.35346000  0.04069000  1
  O  O19  1  0.64654000  0.96581000  0.04069000  1
  O  O20  1  0.03419000  0.68073000  0.04069000  1
  O  O21  1  0.64654000  0.68073000  0.04069000  1
  O  O22  1  0.31927000  0.96581000  0.04069000  1
  O  O23  1  0.03419000  0.35346000  0.04069000  1
  O  O24  1  0.68073000  0.64654000  0.95931000  1
  O  O25  1  0.35346000  0.03419000  0.95931000  1
  O  O26  1  0.96581000  0.31927000  0.95931000  1
  O  O27  1  0.35346000  0.31927000  0.95931000  1
  O  O28  1  0.68073000  0.03419000  0.95931000  1
  O  O29  1  0.96581000  0.64654000  0.95931000  1
  O  O30  1  0.65260333  0.02012667  0.70735667  1
  O  O31  1  0.97987333  0.63247667  0.70735667  1
  O  O32  1  0.36752333  0.34739667  0.70735667  1
  O  O33  1  0.97987333  0.34739667  0.70735667  1
  O  O34  1  0.65260333  0.63247667  0.70735667  1
  O  O35  1  0.36752333  0.02012667  0.70735667  1
  O  O36  1  0.01406333  0.31320667  0.62597667  1
  O  O37  1  0.68679333  0.70085667  0.62597667  1
  O  O38  1  0.29914333  0.98593667  0.62597667  1
  O  O39  1  0.68679333  0.98593667  0.62597667  1
  O  O40  1  0.01406333  0.70085667  0.62597667  1
  O  O41  1  0.29914333  0.31320667  0.62597667  1
  O  O42  1  0.98593667  0.68679333  0.37402333  1
  O  O43  1  0.31320667  0.29914333  0.37402333  1
  O  O44  1  0.70085667  0.01406333  0.37402333  1
  O  O45  1  0.31320667  0.01406333  0.37402333  1
  O  O46  1  0.98593667  0.29914333  0.37402333  1
  O  O47  1  0.70085667  0.68679333  0.37402333  1
  O  O48  1  0.34739667  0.97987333  0.29264333  1
  O  O49  1  0.02012667  0.36752333  0.29264333  1
  O  O50  1  0.63247667  0.65260333  0.29264333  1
  O  O51  1  0.02012667  0.65260333  0.29264333  1
  O  O52  1  0.34739667  0.36752333  0.29264333  1
  O  O53  1  0.63247667  0.97987333  0.29264333  1
  O  O54  1  0.27354000  0.27354000  0.00000000  1
  O  O55  1  0.72646000  0.00000000  0.00000000  1
  O  O56  1  0.00000000  0.72646000  0.00000000  1
  O  O57  1  0.72646000  0.72646000  0.00000000  1
  O  O58  1  0.27354000  0.00000000  0.00000000  1
  O  O59  1  0.00000000  0.27354000  0.00000000  1
  O  O60  1  0.60687333  0.94020667  0.66666667  1
  O  O61  1  0.05979333  0.66666667  0.66666667  1
  O  O62  1  0.33333333  0.39312667  0.66666667  1
  O  O63  1  0.05979333  0.39312667  0.66666667  1
  O  O64  1  0.60687333  0.66666667  0.66666667  1
  O  O65  1  0.33333333  0.94020667  0.66666667  1
  O  O66  1  0.94020667  0.60687333  0.33333333  1
  O  O67  1  0.39312667  0.33333333  0.33333333  1
  O  O68  1  0.66666667  0.05979333  0.33333333  1
  O  O69  1  0.39312667  0.05979333  0.33333333  1
  O  O70  1  0.94020667  0.33333333  0.33333333  1
  O  O71  1  0.66666667  0.60687333  0.33333333  1
  O  O72  1  0.26032000  0.13016000  0.03215000  1
  O  O73  1  0.86984000  0.13016000  0.03215000  1
  O  O74  1  0.86984000  0.73968000  0.03215000  1
  O  O75  1  0.73968000  0.86984000  0.96785000  1
  O  O76  1  0.13016000  0.86984000  0.96785000  1
  O  O77  1  0.13016000  0.26032000  0.96785000  1
  O  O78  1  0.59365333  0.79682667  0.69881667  1
  O  O79  1  0.20317333  0.79682667  0.69881667  1
  O  O80  1  0.20317333  0.40634667  0.69881667  1
  O  O81  1  0.07301333  0.53650667  0.63451667  1
  O  O82  1  0.46349333  0.53650667  0.63451667  1
  O  O83  1  0.46349333  0.92698667  0.63451667  1
  O  O84  1  0.92698667  0.46349333  0.36548333  1
  O  O85  1  0.53650667  0.46349333  0.36548333  1
  O  O86  1  0.53650667  0.07301333  0.36548333  1
  O  O87  1  0.40634667  0.20317333  0.30118333  1
  O  O88  1  0.79682667  0.20317333  0.30118333  1
  O  O89  1  0.79682667  0.59365333  0.30118333  1
  O  O90  1  0.37034000  0.37450000  0.91728000  1
  O  O91  1  0.62550000  0.99584000  0.91728000  1
  O  O92  1  0.00416000  0.62966000  0.91728000  1
  O  O93  1  0.62550000  0.62966000  0.91728000  1
  O  O94  1  0.37034000  0.99584000  0.91728000  1
  O  O95  1  0.00416000  0.37450000  0.91728000  1
  O  O96  1  0.62966000  0.62550000  0.08272000  1
  O  O97  1  0.37450000  0.00416000  0.08272000  1
  O  O98  1  0.99584000  0.37034000  0.08272000  1
  O  O99  1  0.37450000  0.37034000  0.08272000  1
  O  O100  1  0.62966000  0.00416000  0.08272000  1
  O  O101  1  0.99584000  0.62550000  0.08272000  1
  O  O102  1  0.70367333  0.04116667  0.58394667  1
  O  O103  1  0.95883333  0.66250667  0.58394667  1
  O  O104  1  0.33749333  0.29632667  0.58394667  1
  O  O105  1  0.95883333  0.29632667  0.58394667  1
  O  O106  1  0.70367333  0.66250667  0.58394667  1
  O  O107  1  0.33749333  0.04116667  0.58394667  1
  O  O108  1  0.96299333  0.29216667  0.74938667  1
  O  O109  1  0.70783333  0.67082667  0.74938667  1
  O  O110  1  0.32917333  0.03700667  0.74938667  1
  O  O111  1  0.70783333  0.03700667  0.74938667  1
  O  O112  1  0.96299333  0.67082667  0.74938667  1
  O  O113  1  0.32917333  0.29216667  0.74938667  1
  O  O114  1  0.03700667  0.70783333  0.25061333  1
  O  O115  1  0.29216667  0.32917333  0.25061333  1
  O  O116  1  0.67082667  0.96299333  0.25061333  1
  O  O117  1  0.29216667  0.96299333  0.25061333  1
  O  O118  1  0.03700667  0.32917333  0.25061333  1
  O  O119  1  0.67082667  0.70783333  0.25061333  1
  O  O120  1  0.29632667  0.95883333  0.41605333  1
  O  O121  1  0.04116667  0.33749333  0.41605333  1
  O  O122  1  0.66250667  0.70367333  0.41605333  1
  O  O123  1  0.04116667  0.70367333  0.41605333  1
  O  O124  1  0.29632667  0.33749333  0.41605333  1
  O  O125  1  0.66250667  0.95883333  0.41605333  1
  O  O126  1  0.56530000  0.43470000  0.94036000  1
  O  O127  1  0.56530000  0.13060000  0.94036000  1
  O  O128  1  0.86940000  0.43470000  0.94036000  1
  O  O129  1  0.43470000  0.56530000  0.05964000  1
  O  O130  1  0.43470000  0.86940000  0.05964000  1
  O  O131  1  0.13060000  0.56530000  0.05964000  1
  O  O132  1  0.89863333  0.10136667  0.60702667  1
  O  O133  1  0.89863333  0.79726667  0.60702667  1
  O  O134  1  0.20273333  0.10136667  0.60702667  1
  O  O135  1  0.76803333  0.23196667  0.72630667  1
  O  O136  1  0.76803333  0.53606667  0.72630667  1
  O  O137  1  0.46393333  0.23196667  0.72630667  1
  O  O138  1  0.23196667  0.76803333  0.27369333  1
  O  O139  1  0.23196667  0.46393333  0.27369333  1
  O  O140  1  0.53606667  0.76803333  0.27369333  1
  O  O141  1  0.10136667  0.89863333  0.39297333  1
  O  O142  1  0.10136667  0.20273333  0.39297333  1
  O  O143  1  0.79726667  0.89863333  0.39297333  1
  O  O144  1  0.41734000  0.20867000  0.93048000  1
  O  O145  1  0.79133000  0.20867000  0.93048000  1
  O  O146  1  0.79133000  0.58266000  0.93048000  1
  O  O147  1  0.58266000  0.79133000  0.06952000  1
  O  O148  1  0.20867000  0.79133000  0.06952000  1
  O  O149  1  0.20867000  0.41734000  0.06952000  1
  O  O150  1  0.75067333  0.87533667  0.59714667  1
  O  O151  1  0.12466333  0.87533667  0.59714667  1
  O  O152  1  0.12466333  0.24932667  0.59714667  1
  O  O153  1  0.91599333  0.45799667  0.73618667  1
  O  O154  1  0.54200333  0.45799667  0.73618667  1
  O  O155  1  0.54200333  0.08400667  0.73618667  1
  O  O156  1  0.08400667  0.54200333  0.26381333  1
  O  O157  1  0.45799667  0.54200333  0.26381333  1
  O  O158  1  0.45799667  0.91599333  0.26381333  1
  O  O159  1  0.24932667  0.12466333  0.40285333  1
  O  O160  1  0.87533667  0.12466333  0.40285333  1
  O  O161  1  0.87533667  0.75067333  0.40285333  1
  O  O162  1  0.57051000  0.42949000  0.10519000  1
  O  O163  1  0.57051000  0.14102000  0.10519000  1
  O  O164  1  0.85898000  0.42949000  0.10519000  1
  O  O165  1  0.42949000  0.57051000  0.89481000  1
  O  O166  1  0.42949000  0.85898000  0.89481000  1
  O  O167  1  0.14102000  0.57051000  0.89481000  1
  O  O168  1  0.90384333  0.09615667  0.77185667  1
  O  O169  1  0.90384333  0.80768667  0.77185667  1
  O  O170  1  0.19231333  0.09615667  0.77185667  1
  O  O171  1  0.76282333  0.23717667  0.56147667  1
  O  O172  1  0.76282333  0.52564667  0.56147667  1
  O  O173  1  0.47435333  0.23717667  0.56147667  1
  O  O174  1  0.23717667  0.76282333  0.43852333  1
  O  O175  1  0.23717667  0.47435333  0.43852333  1
  O  O176  1  0.52564667  0.76282333  0.43852333  1
  O  O177  1  0.09615667  0.90384333  0.22814333  1
  O  O178  1  0.09615667  0.19231333  0.22814333  1
  O  O179  1  0.80768667  0.90384333  0.22814333  1
  O  O180  1  0.40422000  0.20211000  0.10064000  1
  O  O181  1  0.79789000  0.20211000  0.10064000  1
  O  O182  1  0.79789000  0.59578000  0.10064000  1
  O  O183  1  0.59578000  0.79789000  0.89936000  1
  O  O184  1  0.20211000  0.79789000  0.89936000  1
  O  O185  1  0.20211000  0.40422000  0.89936000  1
  O  O186  1  0.73755333  0.86877667  0.76730667  1
  O  O187  1  0.13122333  0.86877667  0.76730667  1
  O  O188  1  0.13122333  0.26244667  0.76730667  1
  O  O189  1  0.92911333  0.46455667  0.56602667  1
  O  O190  1  0.53544333  0.46455667  0.56602667  1
  O  O191  1  0.53544333  0.07088667  0.56602667  1
  O  O192  1  0.07088667  0.53544333  0.43397333  1
  O  O193  1  0.46455667  0.53544333  0.43397333  1
  O  O194  1  0.46455667  0.92911333  0.43397333  1
  O  O195  1  0.26244667  0.13122333  0.23269333  1
  O  O196  1  0.86877667  0.13122333  0.23269333  1
  O  O197  1  0.86877667  0.73755333  0.23269333  1
  O  O198  1  0.36441000  0.34474000  0.12584000  1
  O  O199  1  0.65526000  0.01967000  0.12584000  1
  O  O200  1  0.98033000  0.63559000  0.12584000  1
  O  O201  1  0.65526000  0.63559000  0.12584000  1
  O  O202  1  0.36441000  0.01967000  0.12584000  1
  O  O203  1  0.98033000  0.34474000  0.12584000  1
  O  O204  1  0.63559000  0.65526000  0.87416000  1
  O  O205  1  0.34474000  0.98033000  0.87416000  1
  O  O206  1  0.01967000  0.36441000  0.87416000  1
  O  O207  1  0.34474000  0.36441000  0.87416000  1
  O  O208  1  0.63559000  0.98033000  0.87416000  1
  O  O209  1  0.01967000  0.65526000  0.87416000  1
  O  O210  1  0.69774333  0.01140667  0.79250667  1
  O  O211  1  0.98859333  0.68633667  0.79250667  1
  O  O212  1  0.31366333  0.30225667  0.79250667  1
  O  O213  1  0.98859333  0.30225667  0.79250667  1
  O  O214  1  0.69774333  0.68633667  0.79250667  1
  O  O215  1  0.31366333  0.01140667  0.79250667  1
  O  O216  1  0.96892333  0.32192667  0.54082667  1
  O  O217  1  0.67807333  0.64699667  0.54082667  1
  O  O218  1  0.35300333  0.03107667  0.54082667  1
  O  O219  1  0.67807333  0.03107667  0.54082667  1
  O  O220  1  0.96892333  0.64699667  0.54082667  1
  O  O221  1  0.35300333  0.32192667  0.54082667  1
  O  O222  1  0.03107667  0.67807333  0.45917333  1
  O  O223  1  0.32192667  0.35300333  0.45917333  1
  O  O224  1  0.64699667  0.96892333  0.45917333  1
  O  O225  1  0.32192667  0.96892333  0.45917333  1
  O  O226  1  0.03107667  0.35300333  0.45917333  1
  O  O227  1  0.64699667  0.67807333  0.45917333  1
  O  O228  1  0.30225667  0.98859333  0.20749333  1
  O  O229  1  0.01140667  0.31366333  0.20749333  1
  O  O230  1  0.68633667  0.69774333  0.20749333  1
  O  O231  1  0.01140667  0.69774333  0.20749333  1
  O  O232  1  0.30225667  0.31366333  0.20749333  1
  O  O233  1  0.68633667  0.98859333  0.20749333  1
  O  O234  1  0.56644000  0.43356000  0.86236000  1
  O  O235  1  0.56644000  0.13288000  0.86236000  1
  O  O236  1  0.86712000  0.43356000  0.86236000  1
  O  O237  1  0.43356000  0.56644000  0.13764000  1
  O  O238  1  0.43356000  0.86712000  0.13764000  1
  O  O239  1  0.13288000  0.56644000  0.13764000  1
  O  O240  1  0.89977333  0.10022667  0.52902667  1
  O  O241  1  0.89977333  0.79954667  0.52902667  1
  O  O242  1  0.20045333  0.10022667  0.52902667  1
  O  O243  1  0.76689333  0.23310667  0.80430667  1
  O  O244  1  0.76689333  0.53378667  0.80430667  1
  O  O245  1  0.46621333  0.23310667  0.80430667  1
  O  O246  1  0.23310667  0.76689333  0.19569333  1
  O  O247  1  0.23310667  0.46621333  0.19569333  1
  O  O248  1  0.53378667  0.76689333  0.19569333  1
  O  O249  1  0.10022667  0.89977333  0.47097333  1
  O  O250  1  0.10022667  0.20045333  0.47097333  1
  O  O251  1  0.79954667  0.89977333  0.47097333  1
  O  O252  1  0.40768000  0.20384000  0.86533000  1
  O  O253  1  0.79616000  0.20384000  0.86533000  1
  O  O254  1  0.79616000  0.59232000  0.86533000  1
  O  O255  1  0.59232000  0.79616000  0.13467000  1
  O  O256  1  0.20384000  0.79616000  0.13467000  1
  O  O257  1  0.20384000  0.40768000  0.13467000  1
  O  O258  1  0.74101333  0.87050667  0.53199667  1
  O  O259  1  0.12949333  0.87050667  0.53199667  1
  O  O260  1  0.12949333  0.25898667  0.53199667  1
  O  O261  1  0.92565333  0.46282667  0.80133667  1
  O  O262  1  0.53717333  0.46282667  0.80133667  1
  O  O263  1  0.53717333  0.07434667  0.80133667  1
  O  O264  1  0.07434667  0.53717333  0.19866333  1
  O  O265  1  0.46282667  0.53717333  0.19866333  1
  O  O266  1  0.46282667  0.92565333  0.19866333  1
  O  O267  1  0.25898667  0.12949333  0.46800333  1
  O  O268  1  0.87050667  0.12949333  0.46800333  1
  O  O269  1  0.87050667  0.74101333  0.46800333  1
  O  O270  1  0.39185000  0.33333333  0.83333000  1
  O  O271  1  0.66666667  0.05851667  0.83333000  1
  O  O272  1  0.94148333  0.60815000  0.83333000  1
  O  O273  1  0.66666667  0.60815000  0.83333000  1
  O  O274  1  0.39185000  0.05851667  0.83333000  1
  O  O275  1  0.94148333  0.33333333  0.83333000  1
  O  O276  1  0.60815000  0.66666667  0.16667000  1
  O  O277  1  0.33333333  0.94148333  0.16667000  1
  O  O278  1  0.05851667  0.39185000  0.16667000  1
  O  O279  1  0.33333333  0.39185000  0.16667000  1
  O  O280  1  0.60815000  0.94148333  0.16667000  1
  O  O281  1  0.05851667  0.66666667  0.16667000  1
  O  O282  1  0.72518333  0.00000000  0.49999667  1
  O  O283  1  0.00000000  0.72518333  0.49999667  1
  O  O284  1  0.27481667  0.27481667  0.49999667  1
  O  O285  1  0.00000000  0.27481667  0.49999667  1
  O  O286  1  0.72518333  0.72518333  0.49999667  1
  O  O287  1  0.27481667  0.00000000  0.49999667  1
