# generated using pymatgen
data_SiO4
_symmetry_space_group_name_H-M   'P 1'
_cell_length_a   12.88003000
_cell_length_b   12.88003000
_cell_length_c   60.60988000
_cell_angle_alpha   90.00000000
_cell_angle_beta   90.00000000
_cell_angle_gamma   120.00000000
_symmetry_Int_Tables_number   1
_chemical_formula_structural   SiO4
_chemical_formula_sum   'Si1 O4'
_cell_volume   8707.78715506
_cell_formula_units_Z   1
loop_
 _symmetry_equiv_pos_site_id
 _symmetry_equiv_pos_as_xyz
  1  'x, y, z'
loop_
 _atom_site_type_symbol
 _atom_site_label
 _atom_site_symmetry_multiplicity
 _atom_site_fract_x
 _atom_site_fract_y
 _atom_site_fract_z
 _atom_site_occupancy
  Si  Si0  1  0.33014667  0.90473333  0.43698333  1
  O  O1  1  0.29632667  0.95883333  0.41605333  1
  O  O2  1  0.23717667  0.76282333  0.43852333  1
  O  O3  1  0.46455667  0.92911333  0.43397333  1
  O  O4  1  0.32192667  0.96892333  0.45917333  1
