# generated using pymatgen
data_SiO4
_symmetry_space_group_name_H-M   'P 1'
_cell_length_a   12.88003000
_cell_length_b   12.88003000
_cell_length_c   60.60988000
_cell_angle_alpha   90.00000000
_cell_angle_beta   90.00000000
_cell_angle_gamma   120.00000000
_symmetry_Int_Tables_number   1
_chemical_formula_structural   SiO4
_chemical_formula_sum   'Si1 O4'
_cell_volume   8707.78715506
_cell_formula_units_Z   1
loop_
 _symmetry_equiv_pos_site_id
 _symmetry_equiv_pos_as_xyz
  1  'x, y, z'
loop_
 _atom_site_type_symbol
 _atom_site_label
 _atom_site_symmetry_multiplicity
 _atom_site_fract_x
 _atom_site_fract_y
 _atom_site_fract_z
 _atom_site_occupancy
  Si  Si0  1  0.33377333  0.42872667  0.69213667  1
  O  O1  1  0.43203333  0.56796667  0.69562667  1
  O  O2  1  0.36752333  0.34739667  0.70735667  1
  O  O3  1  0.33333333  0.39312667  0.66666667  1
  O  O4  1  0.20317333  0.40634667  0.69881667  1
