# generated using pymatgen
data_SiO4
_symmetry_space_group_name_H-M   'P 1'
_cell_length_a   12.88003000
_cell_length_b   12.88003000
_cell_length_c   60.60988000
_cell_angle_alpha   90.00000000
_cell_angle_beta   90.00000000
_cell_angle_gamma   120.00000000
_symmetry_Int_Tables_number   1
_chemical_formula_structural   SiO4
_chemical_formula_sum   'Si1 O4'
_cell_volume   8707.78715506
_cell_formula_units_Z   1
loop_
 _symmetry_equiv_pos_site_id
 _symmetry_equiv_pos_as_xyz
  1  'x, y, z'
loop_
 _atom_site_type_symbol
 _atom_site_label
 _atom_site_symmetry_multiplicity
 _atom_site_fract_x
 _atom_site_fract_y
 _atom_site_fract_z
 _atom_site_occupancy
  Si  Si0  1  0.42828667  0.33289333  0.35880333  1
  O  O1  1  0.46926667  0.23463333  0.36229333  1
  O  O2  1  0.31320667  0.29914333  0.37402333  1
  O  O3  1  0.39312667  0.33333333  0.33333333  1
  O  O4  1  0.53650667  0.46349333  0.36548333  1
