# generated using pymatgen
data_SiO4
_symmetry_space_group_name_H-M   'P 1'
_cell_length_a   12.88003000
_cell_length_b   12.88003000
_cell_length_c   60.60988000
_cell_angle_alpha   90.00000000
_cell_angle_beta   90.00000000
_cell_angle_gamma   120.00000000
_symmetry_Int_Tables_number   1
_chemical_formula_structural   SiO4
_chemical_formula_sum   'Si1 O4'
_cell_volume   8707.78715506
_cell_formula_units_Z   1
loop_
 _symmetry_equiv_pos_site_id
 _symmetry_equiv_pos_as_xyz
  1  'x, y, z'
loop_
 _atom_site_type_symbol
 _atom_site_label
 _atom_site_symmetry_multiplicity
 _atom_site_fract_x
 _atom_site_fract_y
 _atom_site_fract_z
 _atom_site_occupancy
  Si  Si0  1  0.90753000  0.33432000  0.93691000  1
  O  O1  1  0.96581000  0.31927000  0.95931000  1
  O  O2  1  1.00416000  0.37450000  0.91728000  1
  O  O3  1  0.86940000  0.43470000  0.94036000  1
  O  O4  1  0.79133000  0.20867000  0.93048000  1
