# generated using pymatgen
data_SiO4
_symmetry_space_group_name_H-M   'P 1'
_cell_length_a   20.33200000
_cell_length_b   12.08500000
_cell_length_c   10.27500000
_cell_angle_alpha   90.00000000
_cell_angle_beta   105.25400000
_cell_angle_gamma   90.00000000
_symmetry_Int_Tables_number   1
_chemical_formula_structural   SiO4
_chemical_formula_sum   'Si1 O4'
_cell_volume   2435.74549435
_cell_formula_units_Z   1
loop_
 _symmetry_equiv_pos_site_id
 _symmetry_equiv_pos_as_xyz
  1  'x, y, z'
loop_
 _atom_site_type_symbol
 _atom_site_label
 _atom_site_symmetry_multiplicity
 _atom_site_fract_x
 _atom_site_fract_y
 _atom_site_fract_z
 _atom_site_occupancy
  Si  Si0  1  0.65160000  0.66190000  0.80320000  1
  O  O1  1  0.72620000  0.61390000  0.80940000  1
  O  O2  1  0.59550000  0.60380000  0.68220000  1
  O  O3  1  0.65050000  0.79380000  0.78110000  1
  O  O4  1  0.63320000  0.63480000  0.94300000  1
