# generated using pymatgen
data_SiO4
_symmetry_space_group_name_H-M   'P 1'
_cell_length_a   20.33200000
_cell_length_b   12.08500000
_cell_length_c   10.27500000
_cell_angle_alpha   90.00000000
_cell_angle_beta   105.25400000
_cell_angle_gamma   90.00000000
_symmetry_Int_Tables_number   1
_chemical_formula_structural   SiO4
_chemical_formula_sum   'Si1 O4'
_cell_volume   2435.74549435
_cell_formula_units_Z   1
loop_
 _symmetry_equiv_pos_site_id
 _symmetry_equiv_pos_as_xyz
  1  'x, y, z'
loop_
 _atom_site_type_symbol
 _atom_site_label
 _atom_site_symmetry_multiplicity
 _atom_site_fract_x
 _atom_site_fract_y
 _atom_site_fract_z
 _atom_site_occupancy
  Si  Si0  1  0.30470000  0.08830000  0.88430000  1
  O  O1  1  0.34890000  0.19920000  0.88610000  1
  O  O2  1  0.22620000  0.11390000  0.80940000  1
  O  O3  1  0.31130000  0.04930000  1.03720000  1
  O  O4  1  0.33210000  -0.00490000  0.79930000  1
