# generated using pymatgen
data_Si
_symmetry_space_group_name_H-M   'P 1'
_cell_length_a   20.33200000
_cell_length_b   12.08500000
_cell_length_c   10.27500000
_cell_angle_alpha   90.00000000
_cell_angle_beta   105.25400000
_cell_angle_gamma   90.00000000
_symmetry_Int_Tables_number   1
_chemical_formula_structural   Si
_chemical_formula_sum   Si40
_cell_volume   2435.74549435
_cell_formula_units_Z   40
loop_
 _symmetry_equiv_pos_site_id
 _symmetry_equiv_pos_as_xyz
  1  'x, y, z'
loop_
 _atom_site_type_symbol
 _atom_site_label
 _atom_site_symmetry_multiplicity
 _atom_site_fract_x
 _atom_site_fract_y
 _atom_site_fract_z
 _atom_site_occupancy
  Si  Si0  1  0.30540000  0.09450000  0.18110000  1
  Si  Si1  1  0.80540000  0.59450000  0.18110000  1
  Si  Si2  1  0.69460000  0.09450000  0.31890000  1
  Si  Si3  1  0.19460000  0.59450000  0.31890000  1
  Si  Si4  1  0.69460000  0.90550000  0.81890000  1
  Si  Si5  1  0.19460000  0.40550000  0.81890000  1
  Si  Si6  1  0.30540000  0.90550000  0.68110000  1
  Si  Si7  1  0.80540000  0.40550000  0.68110000  1
  Si  Si8  1  0.30470000  0.91170000  0.38430000  1
  Si  Si9  1  0.80470000  0.41170000  0.38430000  1
  Si  Si10  1  0.69530000  0.91170000  0.11570000  1
  Si  Si11  1  0.19530000  0.41170000  0.11570000  1
  Si  Si12  1  0.69530000  0.08830000  0.61570000  1
  Si  Si13  1  0.19530000  0.58830000  0.61570000  1
  Si  Si14  1  0.30470000  0.08830000  0.88430000  1
  Si  Si15  1  0.80470000  0.58830000  0.88430000  1
  Si  Si16  1  0.34840000  0.33810000  0.19680000  1
  Si  Si17  1  0.84840000  0.83810000  0.19680000  1
  Si  Si18  1  0.65160000  0.33810000  0.30320000  1
  Si  Si19  1  0.15160000  0.83810000  0.30320000  1
  Si  Si20  1  0.65160000  0.66190000  0.80320000  1
  Si  Si21  1  0.15160000  0.16190000  0.80320000  1
  Si  Si22  1  0.34840000  0.66190000  0.69680000  1
  Si  Si23  1  0.84840000  0.16190000  0.69680000  1
  Si  Si24  1  0.34780000  0.33190000  0.89980000  1
  Si  Si25  1  0.84780000  0.83190000  0.89980000  1
  Si  Si26  1  0.65220000  0.33190000  0.60020000  1
  Si  Si27  1  0.15220000  0.83190000  0.60020000  1
  Si  Si28  1  0.65220000  0.66810000  0.10020000  1
  Si  Si29  1  0.15220000  0.16810000  0.10020000  1
  Si  Si30  1  0.34780000  0.66810000  0.39980000  1
  Si  Si31  1  0.84780000  0.16810000  0.39980000  1
  Si  Si32  1  0.45110000  0.49430000  0.84940000  1
  Si  Si33  1  0.95110000  0.99430000  0.84940000  1
  Si  Si34  1  0.54890000  0.49430000  0.65060000  1
  Si  Si35  1  0.04890000  0.99430000  0.65060000  1
  Si  Si36  1  0.54890000  0.50570000  0.15060000  1
  Si  Si37  1  0.04890000  0.00570000  0.15060000  1
  Si  Si38  1  0.45110000  0.50570000  0.34940000  1
  Si  Si39  1  0.95110000  0.00570000  0.34940000  1
