# generated using pymatgen
data_O2
_symmetry_space_group_name_H-M   'P 1'
_cell_length_a   20.33200000
_cell_length_b   12.08500000
_cell_length_c   10.27500000
_cell_angle_alpha   90.00000000
_cell_angle_beta   105.25400000
_cell_angle_gamma   90.00000000
_symmetry_Int_Tables_number   1
_chemical_formula_structural   O2
_chemical_formula_sum   O80
_cell_volume   2435.74549435
_cell_formula_units_Z   40
loop_
 _symmetry_equiv_pos_site_id
 _symmetry_equiv_pos_as_xyz
  1  'x, y, z'
loop_
 _atom_site_type_symbol
 _atom_site_label
 _atom_site_symmetry_multiplicity
 _atom_site_fract_x
 _atom_site_fract_y
 _atom_site_fract_z
 _atom_site_occupancy
  O  O0  1  0.34890000  0.80080000  0.38610000  1
  O  O1  1  0.84890000  0.30080000  0.38610000  1
  O  O2  1  0.65110000  0.80080000  0.11390000  1
  O  O3  1  0.15110000  0.30080000  0.11390000  1
  O  O4  1  0.65110000  0.19920000  0.61390000  1
  O  O5  1  0.15110000  0.69920000  0.61390000  1
  O  O6  1  0.34890000  0.19920000  0.88610000  1
  O  O7  1  0.84890000  0.69920000  0.88610000  1
  O  O8  1  0.22620000  0.88610000  0.30940000  1
  O  O9  1  0.72620000  0.38610000  0.30940000  1
  O  O10  1  0.77380000  0.88610000  0.19060000  1
  O  O11  1  0.27380000  0.38610000  0.19060000  1
  O  O12  1  0.77380000  0.11390000  0.69060000  1
  O  O13  1  0.27380000  0.61390000  0.69060000  1
  O  O14  1  0.22620000  0.11390000  0.80940000  1
  O  O15  1  0.72620000  0.61390000  0.80940000  1
  O  O16  1  0.22690000  0.12180000  0.17350000  1
  O  O17  1  0.72690000  0.62180000  0.17350000  1
  O  O18  1  0.77310000  0.12180000  0.32650000  1
  O  O19  1  0.27310000  0.62180000  0.32650000  1
  O  O20  1  0.77310000  0.87820000  0.82650000  1
  O  O21  1  0.27310000  0.37820000  0.82650000  1
  O  O22  1  0.22690000  0.87820000  0.67350000  1
  O  O23  1  0.72690000  0.37820000  0.67350000  1
  O  O24  1  0.40450000  0.39620000  0.31780000  1
  O  O25  1  0.90450000  0.89620000  0.31780000  1
  O  O26  1  0.59550000  0.39620000  0.18220000  1
  O  O27  1  0.09550000  0.89620000  0.18220000  1
  O  O28  1  0.59550000  0.60380000  0.68220000  1
  O  O29  1  0.09550000  0.10380000  0.68220000  1
  O  O30  1  0.40450000  0.60380000  0.81780000  1
  O  O31  1  0.90450000  0.10380000  0.81780000  1
  O  O32  1  0.34950000  0.20620000  0.21890000  1
  O  O33  1  0.84950000  0.70620000  0.21890000  1
  O  O34  1  0.65050000  0.20620000  0.28110000  1
  O  O35  1  0.15050000  0.70620000  0.28110000  1
  O  O36  1  0.65050000  0.79380000  0.78110000  1
  O  O37  1  0.15050000  0.29380000  0.78110000  1
  O  O38  1  0.34950000  0.79380000  0.71890000  1
  O  O39  1  0.84950000  0.29380000  0.71890000  1
  O  O40  1  0.36680000  0.36520000  0.05700000  1
  O  O41  1  0.86680000  0.86520000  0.05700000  1
  O  O42  1  0.63320000  0.36520000  0.44300000  1
  O  O43  1  0.13320000  0.86520000  0.44300000  1
  O  O44  1  0.63320000  0.63480000  0.94300000  1
  O  O45  1  0.13320000  0.13480000  0.94300000  1
  O  O46  1  0.36680000  0.63480000  0.55700000  1
  O  O47  1  0.86680000  0.13480000  0.55700000  1
  O  O48  1  0.50000000  0.50000000  0.00000000  1
  O  O49  1  0.00000000  0.00000000  0.00000000  1
  O  O50  1  0.50000000  0.50000000  0.50000000  1
  O  O51  1  0.00000000  0.00000000  0.50000000  1
  O  O52  1  0.40310000  0.38640000  0.83210000  1
  O  O53  1  0.90310000  0.88640000  0.83210000  1
  O  O54  1  0.59690000  0.38640000  0.66790000  1
  O  O55  1  0.09690000  0.88640000  0.66790000  1
  O  O56  1  0.59690000  0.61360000  0.16790000  1
  O  O57  1  0.09690000  0.11360000  0.16790000  1
  O  O58  1  0.40310000  0.61360000  0.33210000  1
  O  O59  1  0.90310000  0.11360000  0.33210000  1
  O  O60  1  0.31130000  0.04930000  0.03720000  1
  O  O61  1  0.81130000  0.54930000  0.03720000  1
  O  O62  1  0.68870000  0.04930000  0.46280000  1
  O  O63  1  0.18870000  0.54930000  0.46280000  1
  O  O64  1  0.68870000  0.95070000  0.96280000  1
  O  O65  1  0.18870000  0.45070000  0.96280000  1
  O  O66  1  0.31130000  0.95070000  0.53720000  1
  O  O67  1  0.81130000  0.45070000  0.53720000  1
  O  O68  1  0.50000000  0.48570000  0.75000000  1
  O  O69  1  0.00000000  0.98570000  0.75000000  1
  O  O70  1  0.50000000  0.51430000  0.25000000  1
  O  O71  1  0.00000000  0.01430000  0.25000000  1
  O  O72  1  0.33210000  0.00490000  0.29930000  1
  O  O73  1  0.83210000  0.50490000  0.29930000  1
  O  O74  1  0.66790000  0.00490000  0.20070000  1
  O  O75  1  0.16790000  0.50490000  0.20070000  1
  O  O76  1  0.66790000  0.99510000  0.70070000  1
  O  O77  1  0.16790000  0.49510000  0.70070000  1
  O  O78  1  0.33210000  0.99510000  0.79930000  1
  O  O79  1  0.83210000  0.49510000  0.79930000  1
