# generated using pymatgen
data_SiO4
_symmetry_space_group_name_H-M   'P 1'
_cell_length_a   19.84503000
_cell_length_b   19.84503000
_cell_length_c   19.84503000
_cell_angle_alpha   90.00000000
_cell_angle_beta   90.00000000
_cell_angle_gamma   90.00000000
_symmetry_Int_Tables_number   1
_chemical_formula_structural   SiO4
_chemical_formula_sum   'Si1 O4'
_cell_volume   7815.47322034
_cell_formula_units_Z   1
loop_
 _symmetry_equiv_pos_site_id
 _symmetry_equiv_pos_as_xyz
  1  'x, y, z'
loop_
 _atom_site_type_symbol
 _atom_site_label
 _atom_site_symmetry_multiplicity
 _atom_site_fract_x
 _atom_site_fract_y
 _atom_site_fract_z
 _atom_site_occupancy
  Si  Si0  1  0.15790000  0.48463000  0.45593000  1
  O  O1  1  0.11357000  0.50972000  0.51928000  1
  O  O2  1  0.13909000  0.40777000  0.43809000  1
  O  O3  1  0.14059000  0.53280000  0.39290000  1
  O  O4  1  0.23600000  0.49222000  0.47680000  1
