# generated using pymatgen
data_O2
_symmetry_space_group_name_H-M   'P 1'
_cell_length_a   19.84503000
_cell_length_b   19.84503000
_cell_length_c   19.84503000
_cell_angle_alpha   90.00000000
_cell_angle_beta   90.00000000
_cell_angle_gamma   90.00000000
_symmetry_Int_Tables_number   1
_chemical_formula_structural   O2
_chemical_formula_sum   O192
_cell_volume   7815.47322034
_cell_formula_units_Z   96
loop_
 _symmetry_equiv_pos_site_id
 _symmetry_equiv_pos_as_xyz
  1  'x, y, z'
loop_
 _atom_site_type_symbol
 _atom_site_label
 _atom_site_symmetry_multiplicity
 _atom_site_fract_x
 _atom_site_fract_y
 _atom_site_fract_z
 _atom_site_occupancy
  O  O0  1  0.01928000  0.38643000  0.49028000  1
  O  O1  1  0.51928000  0.11357000  0.50972000  1
  O  O2  1  0.98072000  0.88643000  0.00972000  1
  O  O3  1  0.48072000  0.61357000  0.99028000  1
  O  O4  1  0.49028000  0.01928000  0.38643000  1
  O  O5  1  0.99028000  0.48072000  0.61357000  1
  O  O6  1  0.50972000  0.51928000  0.11357000  1
  O  O7  1  0.00972000  0.98072000  0.88643000  1
  O  O8  1  0.38643000  0.49028000  0.01928000  1
  O  O9  1  0.88643000  0.00972000  0.98072000  1
  O  O10  1  0.61357000  0.99028000  0.48072000  1
  O  O11  1  0.11357000  0.50972000  0.51928000  1
  O  O12  1  0.98072000  0.61357000  0.50972000  1
  O  O13  1  0.48072000  0.88643000  0.49028000  1
  O  O14  1  0.01928000  0.11357000  0.99028000  1
  O  O15  1  0.51928000  0.38643000  0.00972000  1
  O  O16  1  0.50972000  0.98072000  0.61357000  1
  O  O17  1  0.00972000  0.51928000  0.38643000  1
  O  O18  1  0.49028000  0.48072000  0.88643000  1
  O  O19  1  0.99028000  0.01928000  0.11357000  1
  O  O20  1  0.61357000  0.50972000  0.98072000  1
  O  O21  1  0.11357000  0.99028000  0.01928000  1
  O  O22  1  0.38643000  0.00972000  0.51928000  1
  O  O23  1  0.88643000  0.49028000  0.48072000  1
  O  O24  1  0.13909000  0.40777000  0.43809000  1
  O  O25  1  0.63909000  0.09223000  0.56191000  1
  O  O26  1  0.86091000  0.90777000  0.06191000  1
  O  O27  1  0.36091000  0.59223000  0.93809000  1
  O  O28  1  0.43809000  0.13909000  0.40777000  1
  O  O29  1  0.93809000  0.36091000  0.59223000  1
  O  O30  1  0.56191000  0.63909000  0.09223000  1
  O  O31  1  0.06191000  0.86091000  0.90777000  1
  O  O32  1  0.40777000  0.43809000  0.13909000  1
  O  O33  1  0.90777000  0.06191000  0.86091000  1
  O  O34  1  0.59223000  0.93809000  0.36091000  1
  O  O35  1  0.09223000  0.56191000  0.63909000  1
  O  O36  1  0.86091000  0.59223000  0.56191000  1
  O  O37  1  0.36091000  0.90777000  0.43809000  1
  O  O38  1  0.13909000  0.09223000  0.93809000  1
  O  O39  1  0.63909000  0.40777000  0.06191000  1
  O  O40  1  0.56191000  0.86091000  0.59223000  1
  O  O41  1  0.06191000  0.63909000  0.40777000  1
  O  O42  1  0.43809000  0.36091000  0.90777000  1
  O  O43  1  0.93809000  0.13909000  0.09223000  1
  O  O44  1  0.59223000  0.56191000  0.86091000  1
  O  O45  1  0.09223000  0.93809000  0.13909000  1
  O  O46  1  0.40777000  0.06191000  0.63909000  1
  O  O47  1  0.90777000  0.43809000  0.36091000  1
  O  O48  1  0.03280000  0.39290000  0.35941000  1
  O  O49  1  0.53280000  0.10710000  0.64059000  1
  O  O50  1  0.96720000  0.89290000  0.14059000  1
  O  O51  1  0.46720000  0.60710000  0.85941000  1
  O  O52  1  0.35941000  0.03280000  0.39290000  1
  O  O53  1  0.85941000  0.46720000  0.60710000  1
  O  O54  1  0.64059000  0.53280000  0.10710000  1
  O  O55  1  0.14059000  0.96720000  0.89290000  1
  O  O56  1  0.39290000  0.35941000  0.03280000  1
  O  O57  1  0.89290000  0.14059000  0.96720000  1
  O  O58  1  0.60710000  0.85941000  0.46720000  1
  O  O59  1  0.10710000  0.64059000  0.53280000  1
  O  O60  1  0.96720000  0.60710000  0.64059000  1
  O  O61  1  0.46720000  0.89290000  0.35941000  1
  O  O62  1  0.03280000  0.10710000  0.85941000  1
  O  O63  1  0.53280000  0.39290000  0.14059000  1
  O  O64  1  0.64059000  0.96720000  0.60710000  1
  O  O65  1  0.14059000  0.53280000  0.39290000  1
  O  O66  1  0.35941000  0.46720000  0.89290000  1
  O  O67  1  0.85941000  0.03280000  0.10710000  1
  O  O68  1  0.60710000  0.64059000  0.96720000  1
  O  O69  1  0.10710000  0.85941000  0.03280000  1
  O  O70  1  0.39290000  0.14059000  0.53280000  1
  O  O71  1  0.89290000  0.35941000  0.46720000  1
  O  O72  1  0.07873000  0.28821000  0.42743000  1
  O  O73  1  0.57873000  0.21179000  0.57257000  1
  O  O74  1  0.92127000  0.78821000  0.07257000  1
  O  O75  1  0.42127000  0.71179000  0.92743000  1
  O  O76  1  0.42743000  0.07873000  0.28821000  1
  O  O77  1  0.92743000  0.42127000  0.71179000  1
  O  O78  1  0.57257000  0.57873000  0.21179000  1
  O  O79  1  0.07257000  0.92127000  0.78821000  1
  O  O80  1  0.28821000  0.42743000  0.07873000  1
  O  O81  1  0.78821000  0.07257000  0.92127000  1
  O  O82  1  0.71179000  0.92743000  0.42127000  1
  O  O83  1  0.21179000  0.57257000  0.57873000  1
  O  O84  1  0.92127000  0.71179000  0.57257000  1
  O  O85  1  0.42127000  0.78821000  0.42743000  1
  O  O86  1  0.07873000  0.21179000  0.92743000  1
  O  O87  1  0.57873000  0.28821000  0.07257000  1
  O  O88  1  0.57257000  0.92127000  0.71179000  1
  O  O89  1  0.07257000  0.57873000  0.28821000  1
  O  O90  1  0.42743000  0.42127000  0.78821000  1
  O  O91  1  0.92743000  0.07873000  0.21179000  1
  O  O92  1  0.71179000  0.57257000  0.92127000  1
  O  O93  1  0.21179000  0.92743000  0.07873000  1
  O  O94  1  0.28821000  0.07257000  0.57873000  1
  O  O95  1  0.78821000  0.42743000  0.42127000  1
  O  O96  1  0.00063000  0.18273000  0.40560000  1
  O  O97  1  0.50063000  0.31727000  0.59440000  1
  O  O98  1  0.99937000  0.68273000  0.09440000  1
  O  O99  1  0.49937000  0.81727000  0.90560000  1
  O  O100  1  0.40560000  0.00063000  0.18273000  1
  O  O101  1  0.90560000  0.49937000  0.81727000  1
  O  O102  1  0.59440000  0.50063000  0.31727000  1
  O  O103  1  0.09440000  0.99937000  0.68273000  1
  O  O104  1  0.18273000  0.40560000  0.00063000  1
  O  O105  1  0.68273000  0.09440000  0.99937000  1
  O  O106  1  0.81727000  0.90560000  0.49937000  1
  O  O107  1  0.31727000  0.59440000  0.50063000  1
  O  O108  1  0.99937000  0.81727000  0.59440000  1
  O  O109  1  0.49937000  0.68273000  0.40560000  1
  O  O110  1  0.00063000  0.31727000  0.90560000  1
  O  O111  1  0.50063000  0.18273000  0.09440000  1
  O  O112  1  0.59440000  0.99937000  0.81727000  1
  O  O113  1  0.09440000  0.50063000  0.18273000  1
  O  O114  1  0.40560000  0.49937000  0.68273000  1
  O  O115  1  0.90560000  0.00063000  0.31727000  1
  O  O116  1  0.81727000  0.59440000  0.99937000  1
  O  O117  1  0.31727000  0.90560000  0.00063000  1
  O  O118  1  0.18273000  0.09440000  0.50063000  1
  O  O119  1  0.68273000  0.40560000  0.49937000  1
  O  O120  1  0.08270000  0.18308000  0.50869000  1
  O  O121  1  0.58270000  0.31692000  0.49131000  1
  O  O122  1  0.91730000  0.68308000  0.99131000  1
  O  O123  1  0.41730000  0.81692000  0.00869000  1
  O  O124  1  0.50869000  0.08270000  0.18308000  1
  O  O125  1  0.00869000  0.41730000  0.81692000  1
  O  O126  1  0.49131000  0.58270000  0.31692000  1
  O  O127  1  0.99131000  0.91730000  0.68308000  1
  O  O128  1  0.18308000  0.50869000  0.08270000  1
  O  O129  1  0.68308000  0.99131000  0.91730000  1
  O  O130  1  0.81692000  0.00869000  0.41730000  1
  O  O131  1  0.31692000  0.49131000  0.58270000  1
  O  O132  1  0.91730000  0.81692000  0.49131000  1
  O  O133  1  0.41730000  0.68308000  0.50869000  1
  O  O134  1  0.08270000  0.31692000  0.00869000  1
  O  O135  1  0.58270000  0.18308000  0.99131000  1
  O  O136  1  0.49131000  0.91730000  0.81692000  1
  O  O137  1  0.99131000  0.58270000  0.18308000  1
  O  O138  1  0.50869000  0.41730000  0.68308000  1
  O  O139  1  0.00869000  0.08270000  0.31692000  1
  O  O140  1  0.81692000  0.49131000  0.91730000  1
  O  O141  1  0.31692000  0.00869000  0.08270000  1
  O  O142  1  0.18308000  0.99131000  0.58270000  1
  O  O143  1  0.68308000  0.50869000  0.41730000  1
  O  O144  1  0.97680000  0.26400000  0.50778000  1
  O  O145  1  0.47680000  0.23600000  0.49222000  1
  O  O146  1  0.02320000  0.76400000  0.99222000  1
  O  O147  1  0.52320000  0.73600000  0.00778000  1
  O  O148  1  0.50778000  0.97680000  0.26400000  1
  O  O149  1  0.00778000  0.52320000  0.73600000  1
  O  O150  1  0.49222000  0.47680000  0.23600000  1
  O  O151  1  0.99222000  0.02320000  0.76400000  1
  O  O152  1  0.26400000  0.50778000  0.97680000  1
  O  O153  1  0.76400000  0.99222000  0.02320000  1
  O  O154  1  0.73600000  0.00778000  0.52320000  1
  O  O155  1  0.23600000  0.49222000  0.47680000  1
  O  O156  1  0.02320000  0.73600000  0.49222000  1
  O  O157  1  0.52320000  0.76400000  0.50778000  1
  O  O158  1  0.97680000  0.23600000  0.00778000  1
  O  O159  1  0.47680000  0.26400000  0.99222000  1
  O  O160  1  0.49222000  0.02320000  0.73600000  1
  O  O161  1  0.99222000  0.47680000  0.26400000  1
  O  O162  1  0.50778000  0.52320000  0.76400000  1
  O  O163  1  0.00778000  0.97680000  0.23600000  1
  O  O164  1  0.73600000  0.49222000  0.02320000  1
  O  O165  1  0.23600000  0.00778000  0.97680000  1
  O  O166  1  0.26400000  0.99222000  0.47680000  1
  O  O167  1  0.76400000  0.50778000  0.52320000  1
  O  O168  1  0.06800000  0.07436000  0.43620000  1
  O  O169  1  0.56800000  0.42564000  0.56380000  1
  O  O170  1  0.93200000  0.57436000  0.06380000  1
  O  O171  1  0.43200000  0.92564000  0.93620000  1
  O  O172  1  0.43620000  0.06800000  0.07436000  1
  O  O173  1  0.93620000  0.43200000  0.92564000  1
  O  O174  1  0.56380000  0.56800000  0.42564000  1
  O  O175  1  0.06380000  0.93200000  0.57436000  1
  O  O176  1  0.07436000  0.43620000  0.06800000  1
  O  O177  1  0.57436000  0.06380000  0.93200000  1
  O  O178  1  0.92564000  0.93620000  0.43200000  1
  O  O179  1  0.42564000  0.56380000  0.56800000  1
  O  O180  1  0.93200000  0.92564000  0.56380000  1
  O  O181  1  0.43200000  0.57436000  0.43620000  1
  O  O182  1  0.06800000  0.42564000  0.93620000  1
  O  O183  1  0.56800000  0.07436000  0.06380000  1
  O  O184  1  0.56380000  0.93200000  0.92564000  1
  O  O185  1  0.06380000  0.56800000  0.07436000  1
  O  O186  1  0.43620000  0.43200000  0.57436000  1
  O  O187  1  0.93620000  0.06800000  0.42564000  1
  O  O188  1  0.92564000  0.56380000  0.93200000  1
  O  O189  1  0.42564000  0.93620000  0.06800000  1
  O  O190  1  0.07436000  0.06380000  0.56800000  1
  O  O191  1  0.57436000  0.43620000  0.43200000  1
