# generated using pymatgen
data_Si
_symmetry_space_group_name_H-M   'P 1'
_cell_length_a   19.84503000
_cell_length_b   19.84503000
_cell_length_c   19.84503000
_cell_angle_alpha   90.00000000
_cell_angle_beta   90.00000000
_cell_angle_gamma   90.00000000
_symmetry_Int_Tables_number   1
_chemical_formula_structural   Si
_chemical_formula_sum   Si96
_cell_volume   7815.47322034
_cell_formula_units_Z   96
loop_
 _symmetry_equiv_pos_site_id
 _symmetry_equiv_pos_as_xyz
  1  'x, y, z'
loop_
 _atom_site_type_symbol
 _atom_site_label
 _atom_site_symmetry_multiplicity
 _atom_site_fract_x
 _atom_site_fract_y
 _atom_site_fract_z
 _atom_site_occupancy
  Si  Si0  1  0.06865000  0.36877000  0.42815000  1
  Si  Si1  1  0.56865000  0.13123000  0.57185000  1
  Si  Si2  1  0.93135000  0.86877000  0.07185000  1
  Si  Si3  1  0.43135000  0.63123000  0.92815000  1
  Si  Si4  1  0.42815000  0.06865000  0.36877000  1
  Si  Si5  1  0.92815000  0.43135000  0.63123000  1
  Si  Si6  1  0.57185000  0.56865000  0.13123000  1
  Si  Si7  1  0.07185000  0.93135000  0.86877000  1
  Si  Si8  1  0.36877000  0.42815000  0.06865000  1
  Si  Si9  1  0.86877000  0.07185000  0.93135000  1
  Si  Si10  1  0.63123000  0.92815000  0.43135000  1
  Si  Si11  1  0.13123000  0.57185000  0.56865000  1
  Si  Si12  1  0.93135000  0.63123000  0.57185000  1
  Si  Si13  1  0.43135000  0.86877000  0.42815000  1
  Si  Si14  1  0.06865000  0.13123000  0.92815000  1
  Si  Si15  1  0.56865000  0.36877000  0.07185000  1
  Si  Si16  1  0.57185000  0.93135000  0.63123000  1
  Si  Si17  1  0.07185000  0.56865000  0.36877000  1
  Si  Si18  1  0.42815000  0.43135000  0.86877000  1
  Si  Si19  1  0.92815000  0.06865000  0.13123000  1
  Si  Si20  1  0.63123000  0.57185000  0.93135000  1
  Si  Si21  1  0.13123000  0.92815000  0.06865000  1
  Si  Si22  1  0.36877000  0.07185000  0.56865000  1
  Si  Si23  1  0.86877000  0.42815000  0.43135000  1
  Si  Si24  1  0.03477000  0.22959000  0.46249000  1
  Si  Si25  1  0.53477000  0.27041000  0.53751000  1
  Si  Si26  1  0.96523000  0.72959000  0.03751000  1
  Si  Si27  1  0.46523000  0.77041000  0.96249000  1
  Si  Si28  1  0.46249000  0.03477000  0.22959000  1
  Si  Si29  1  0.96249000  0.46523000  0.77041000  1
  Si  Si30  1  0.53751000  0.53477000  0.27041000  1
  Si  Si31  1  0.03751000  0.96523000  0.72959000  1
  Si  Si32  1  0.22959000  0.46249000  0.03477000  1
  Si  Si33  1  0.72959000  0.03751000  0.96523000  1
  Si  Si34  1  0.77041000  0.96249000  0.46523000  1
  Si  Si35  1  0.27041000  0.53751000  0.53477000  1
  Si  Si36  1  0.96523000  0.77041000  0.53751000  1
  Si  Si37  1  0.46523000  0.72959000  0.46249000  1
  Si  Si38  1  0.03477000  0.27041000  0.96249000  1
  Si  Si39  1  0.53477000  0.22959000  0.03751000  1
  Si  Si40  1  0.53751000  0.96523000  0.77041000  1
  Si  Si41  1  0.03751000  0.53477000  0.22959000  1
  Si  Si42  1  0.46249000  0.46523000  0.72959000  1
  Si  Si43  1  0.96249000  0.03477000  0.27041000  1
  Si  Si44  1  0.77041000  0.53751000  0.96523000  1
  Si  Si45  1  0.27041000  0.96249000  0.03477000  1
  Si  Si46  1  0.22959000  0.03751000  0.53477000  1
  Si  Si47  1  0.72959000  0.46249000  0.46523000  1
  Si  Si48  1  0.15790000  0.48463000  0.45593000  1
  Si  Si49  1  0.65790000  0.01537000  0.54407000  1
  Si  Si50  1  0.84210000  0.98463000  0.04407000  1
  Si  Si51  1  0.34210000  0.51537000  0.95593000  1
  Si  Si52  1  0.45593000  0.15790000  0.48463000  1
  Si  Si53  1  0.95593000  0.34210000  0.51537000  1
  Si  Si54  1  0.54407000  0.65790000  0.01537000  1
  Si  Si55  1  0.04407000  0.84210000  0.98463000  1
  Si  Si56  1  0.48463000  0.45593000  0.15790000  1
  Si  Si57  1  0.98463000  0.04407000  0.84210000  1
  Si  Si58  1  0.51537000  0.95593000  0.34210000  1
  Si  Si59  1  0.01537000  0.54407000  0.65790000  1
  Si  Si60  1  0.84210000  0.51537000  0.54407000  1
  Si  Si61  1  0.34210000  0.98463000  0.45593000  1
  Si  Si62  1  0.15790000  0.01537000  0.95593000  1
  Si  Si63  1  0.65790000  0.48463000  0.04407000  1
  Si  Si64  1  0.54407000  0.84210000  0.51537000  1
  Si  Si65  1  0.04407000  0.65790000  0.48463000  1
  Si  Si66  1  0.45593000  0.34210000  0.98463000  1
  Si  Si67  1  0.95593000  0.15790000  0.01537000  1
  Si  Si68  1  0.51537000  0.54407000  0.84210000  1
  Si  Si69  1  0.01537000  0.95593000  0.15790000  1
  Si  Si70  1  0.48463000  0.04407000  0.65790000  1
  Si  Si71  1  0.98463000  0.45593000  0.34210000  1
  Si  Si72  1  0.10222000  0.10446000  0.50344000  1
  Si  Si73  1  0.60222000  0.39554000  0.49656000  1
  Si  Si74  1  0.89778000  0.60446000  0.99656000  1
  Si  Si75  1  0.39778000  0.89554000  0.00344000  1
  Si  Si76  1  0.50344000  0.10222000  0.10446000  1
  Si  Si77  1  0.00344000  0.39778000  0.89554000  1
  Si  Si78  1  0.49656000  0.60222000  0.39554000  1
  Si  Si79  1  0.99656000  0.89778000  0.60446000  1
  Si  Si80  1  0.10446000  0.50344000  0.10222000  1
  Si  Si81  1  0.60446000  0.99656000  0.89778000  1
  Si  Si82  1  0.89554000  0.00344000  0.39778000  1
  Si  Si83  1  0.39554000  0.49656000  0.60222000  1
  Si  Si84  1  0.89778000  0.89554000  0.49656000  1
  Si  Si85  1  0.39778000  0.60446000  0.50344000  1
  Si  Si86  1  0.10222000  0.39554000  0.00344000  1
  Si  Si87  1  0.60222000  0.10446000  0.99656000  1
  Si  Si88  1  0.49656000  0.89778000  0.89554000  1
  Si  Si89  1  0.99656000  0.60222000  0.10446000  1
  Si  Si90  1  0.50344000  0.39778000  0.60446000  1
  Si  Si91  1  0.00344000  0.10222000  0.39554000  1
  Si  Si92  1  0.89554000  0.49656000  0.89778000  1
  Si  Si93  1  0.39554000  0.00344000  0.10222000  1
  Si  Si94  1  0.10446000  0.99656000  0.60222000  1
  Si  Si95  1  0.60446000  0.50344000  0.39778000  1
