# generated using pymatgen
data_Si
_symmetry_space_group_name_H-M   'P 1'
_cell_length_a   13.05800000
_cell_length_b   13.05800000
_cell_length_c   25.91900000
_cell_angle_alpha   90.00000000
_cell_angle_beta   90.00000000
_cell_angle_gamma   120.00000000
_symmetry_Int_Tables_number   1
_chemical_formula_structural   Si
_chemical_formula_sum   Si56
_cell_volume   3827.38545330
_cell_formula_units_Z   56
loop_
 _symmetry_equiv_pos_site_id
 _symmetry_equiv_pos_as_xyz
  1  'x, y, z'
loop_
 _atom_site_type_symbol
 _atom_site_label
 _atom_site_symmetry_multiplicity
 _atom_site_fract_x
 _atom_site_fract_y
 _atom_site_fract_z
 _atom_site_occupancy
  Si  Si0  1  0.49180000  0.35590000  0.13300000  1
  Si  Si1  1  0.64410000  0.13590000  0.13300000  1
  Si  Si2  1  0.86410000  0.50820000  0.13300000  1
  Si  Si3  1  0.50820000  0.64410000  0.63300000  1
  Si  Si4  1  0.35590000  0.86410000  0.63300000  1
  Si  Si5  1  0.13590000  0.49180000  0.63300000  1
  Si  Si6  1  0.64410000  0.50820000  0.63300000  1
  Si  Si7  1  0.86410000  0.35590000  0.63300000  1
  Si  Si8  1  0.49180000  0.13590000  0.63300000  1
  Si  Si9  1  0.35590000  0.49180000  0.13300000  1
  Si  Si10  1  0.13590000  0.64410000  0.13300000  1
  Si  Si11  1  0.50820000  0.86410000  0.13300000  1
  Si  Si12  1  0.50820000  0.64410000  0.86700000  1
  Si  Si13  1  0.35590000  0.86410000  0.86700000  1
  Si  Si14  1  0.13590000  0.49180000  0.86700000  1
  Si  Si15  1  0.49180000  0.35590000  0.36700000  1
  Si  Si16  1  0.64410000  0.13590000  0.36700000  1
  Si  Si17  1  0.86410000  0.50820000  0.36700000  1
  Si  Si18  1  0.35590000  0.49180000  0.36700000  1
  Si  Si19  1  0.13590000  0.64410000  0.36700000  1
  Si  Si20  1  0.50820000  0.86410000  0.36700000  1
  Si  Si21  1  0.64410000  0.50820000  0.86700000  1
  Si  Si22  1  0.86410000  0.35590000  0.86700000  1
  Si  Si23  1  0.49180000  0.13590000  0.86700000  1
  Si  Si24  1  0.43700000  0.13370000  0.19080000  1
  Si  Si25  1  0.86630000  0.30330000  0.19080000  1
  Si  Si26  1  0.69670000  0.56300000  0.19080000  1
  Si  Si27  1  0.56300000  0.86630000  0.69080000  1
  Si  Si28  1  0.13370000  0.69670000  0.69080000  1
  Si  Si29  1  0.30330000  0.43700000  0.69080000  1
  Si  Si30  1  0.86630000  0.56300000  0.69080000  1
  Si  Si31  1  0.69670000  0.13370000  0.69080000  1
  Si  Si32  1  0.43700000  0.30330000  0.69080000  1
  Si  Si33  1  0.13370000  0.43700000  0.19080000  1
  Si  Si34  1  0.30330000  0.86630000  0.19080000  1
  Si  Si35  1  0.56300000  0.69670000  0.19080000  1
  Si  Si36  1  0.56300000  0.86630000  0.80920000  1
  Si  Si37  1  0.13370000  0.69670000  0.80920000  1
  Si  Si38  1  0.30330000  0.43700000  0.80920000  1
  Si  Si39  1  0.43700000  0.13370000  0.30920000  1
  Si  Si40  1  0.86630000  0.30330000  0.30920000  1
  Si  Si41  1  0.69670000  0.56300000  0.30920000  1
  Si  Si42  1  0.13370000  0.43700000  0.30920000  1
  Si  Si43  1  0.30330000  0.86630000  0.30920000  1
  Si  Si44  1  0.56300000  0.69670000  0.30920000  1
  Si  Si45  1  0.86630000  0.56300000  0.80920000  1
  Si  Si46  1  0.69670000  0.13370000  0.80920000  1
  Si  Si47  1  0.43700000  0.30330000  0.80920000  1
  Si  Si48  1  0.66666667  0.33333333  0.06200000  1
  Si  Si49  1  0.33333333  0.66666667  0.56200000  1
  Si  Si50  1  0.66666667  0.33333333  0.56200000  1
  Si  Si51  1  0.33333333  0.66666667  0.06200000  1
  Si  Si52  1  0.33333333  0.66666667  0.93800000  1
  Si  Si53  1  0.66666667  0.33333333  0.43800000  1
  Si  Si54  1  0.33333333  0.66666667  0.43800000  1
  Si  Si55  1  0.66666667  0.33333333  0.93800000  1
