# generated using pymatgen
data_Si
_symmetry_space_group_name_H-M   'P 1'
_cell_length_a   20.27000000
_cell_length_b   20.27000000
_cell_length_c   13.45900000
_cell_angle_alpha   90.00000000
_cell_angle_beta   90.00000000
_cell_angle_gamma   90.00000000
_symmetry_Int_Tables_number   1
_chemical_formula_structural   Si
_chemical_formula_sum   Si96
_cell_volume   5529.93836110
_cell_formula_units_Z   96
loop_
 _symmetry_equiv_pos_site_id
 _symmetry_equiv_pos_as_xyz
  1  'x, y, z'
loop_
 _atom_site_type_symbol
 _atom_site_label
 _atom_site_symmetry_multiplicity
 _atom_site_fract_x
 _atom_site_fract_y
 _atom_site_fract_z
 _atom_site_occupancy
  Si  Si0  1  0.12030000  0.18580000  0.15360000  1
  Si  Si1  1  0.62030000  0.68580000  0.65360000  1
  Si  Si2  1  0.81420000  0.12030000  0.84640000  1
  Si  Si3  1  0.31420000  0.62030000  0.34640000  1
  Si  Si4  1  0.87970000  0.81420000  0.15360000  1
  Si  Si5  1  0.37970000  0.31420000  0.65360000  1
  Si  Si6  1  0.18580000  0.87970000  0.84640000  1
  Si  Si7  1  0.68580000  0.37970000  0.34640000  1
  Si  Si8  1  0.87970000  0.18580000  0.15360000  1
  Si  Si9  1  0.37970000  0.68580000  0.65360000  1
  Si  Si10  1  0.18580000  0.12030000  0.84640000  1
  Si  Si11  1  0.68580000  0.62030000  0.34640000  1
  Si  Si12  1  0.12030000  0.81420000  0.15360000  1
  Si  Si13  1  0.62030000  0.31420000  0.65360000  1
  Si  Si14  1  0.81420000  0.87970000  0.84640000  1
  Si  Si15  1  0.31420000  0.37970000  0.34640000  1
  Si  Si16  1  0.07680000  0.22920000  0.36180000  1
  Si  Si17  1  0.57680000  0.72920000  0.86180000  1
  Si  Si18  1  0.77080000  0.07680000  0.63820000  1
  Si  Si19  1  0.27080000  0.57680000  0.13820000  1
  Si  Si20  1  0.92320000  0.77080000  0.36180000  1
  Si  Si21  1  0.42320000  0.27080000  0.86180000  1
  Si  Si22  1  0.22920000  0.92320000  0.63820000  1
  Si  Si23  1  0.72920000  0.42320000  0.13820000  1
  Si  Si24  1  0.92320000  0.22920000  0.36180000  1
  Si  Si25  1  0.42320000  0.72920000  0.86180000  1
  Si  Si26  1  0.22920000  0.07680000  0.63820000  1
  Si  Si27  1  0.72920000  0.57680000  0.13820000  1
  Si  Si28  1  0.07680000  0.77080000  0.36180000  1
  Si  Si29  1  0.57680000  0.27080000  0.86180000  1
  Si  Si30  1  0.77080000  0.92320000  0.63820000  1
  Si  Si31  1  0.27080000  0.42320000  0.13820000  1
  Si  Si32  1  0.27790000  0.18570000  0.14390000  1
  Si  Si33  1  0.77790000  0.68570000  0.64390000  1
  Si  Si34  1  0.81430000  0.27790000  0.85610000  1
  Si  Si35  1  0.31430000  0.77790000  0.35610000  1
  Si  Si36  1  0.72210000  0.81430000  0.14390000  1
  Si  Si37  1  0.22210000  0.31430000  0.64390000  1
  Si  Si38  1  0.18570000  0.72210000  0.85610000  1
  Si  Si39  1  0.68570000  0.22210000  0.35610000  1
  Si  Si40  1  0.72210000  0.18570000  0.14390000  1
  Si  Si41  1  0.22210000  0.68570000  0.64390000  1
  Si  Si42  1  0.18570000  0.27790000  0.85610000  1
  Si  Si43  1  0.68570000  0.77790000  0.35610000  1
  Si  Si44  1  0.27790000  0.81430000  0.14390000  1
  Si  Si45  1  0.77790000  0.31430000  0.64390000  1
  Si  Si46  1  0.81430000  0.72210000  0.85610000  1
  Si  Si47  1  0.31430000  0.22210000  0.35610000  1
  Si  Si48  1  0.30630000  0.07600000  0.98400000  1
  Si  Si49  1  0.80630000  0.57600000  0.48400000  1
  Si  Si50  1  0.92400000  0.30630000  0.01600000  1
  Si  Si51  1  0.42400000  0.80630000  0.51600000  1
  Si  Si52  1  0.69370000  0.92400000  0.98400000  1
  Si  Si53  1  0.19370000  0.42400000  0.48400000  1
  Si  Si54  1  0.07600000  0.69370000  0.01600000  1
  Si  Si55  1  0.57600000  0.19370000  0.51600000  1
  Si  Si56  1  0.69370000  0.07600000  0.98400000  1
  Si  Si57  1  0.19370000  0.57600000  0.48400000  1
  Si  Si58  1  0.07600000  0.30630000  0.01600000  1
  Si  Si59  1  0.57600000  0.80630000  0.51600000  1
  Si  Si60  1  0.30630000  0.92400000  0.98400000  1
  Si  Si61  1  0.80630000  0.42400000  0.48400000  1
  Si  Si62  1  0.92400000  0.69370000  0.01600000  1
  Si  Si63  1  0.42400000  0.19370000  0.51600000  1
  Si  Si64  1  0.07560000  0.37990000  0.35440000  1
  Si  Si65  1  0.57560000  0.87990000  0.85440000  1
  Si  Si66  1  0.62010000  0.07560000  0.64560000  1
  Si  Si67  1  0.12010000  0.57560000  0.14560000  1
  Si  Si68  1  0.92440000  0.62010000  0.35440000  1
  Si  Si69  1  0.42440000  0.12010000  0.85440000  1
  Si  Si70  1  0.37990000  0.92440000  0.64560000  1
  Si  Si71  1  0.87990000  0.42440000  0.14560000  1
  Si  Si72  1  0.92440000  0.37990000  0.35440000  1
  Si  Si73  1  0.42440000  0.87990000  0.85440000  1
  Si  Si74  1  0.37990000  0.07560000  0.64560000  1
  Si  Si75  1  0.87990000  0.57560000  0.14560000  1
  Si  Si76  1  0.07560000  0.62010000  0.35440000  1
  Si  Si77  1  0.57560000  0.12010000  0.85440000  1
  Si  Si78  1  0.62010000  0.92440000  0.64560000  1
  Si  Si79  1  0.12010000  0.42440000  0.14560000  1
  Si  Si80  1  0.07620000  0.07620000  0.00000000  1
  Si  Si81  1  0.57620000  0.57620000  0.50000000  1
  Si  Si82  1  0.92380000  0.07620000  0.00000000  1
  Si  Si83  1  0.42380000  0.57620000  0.50000000  1
  Si  Si84  1  0.92380000  0.92380000  0.00000000  1
  Si  Si85  1  0.42380000  0.42380000  0.50000000  1
  Si  Si86  1  0.07620000  0.92380000  0.00000000  1
  Si  Si87  1  0.57620000  0.42380000  0.50000000  1
  Si  Si88  1  0.19300000  0.19300000  0.50000000  1
  Si  Si89  1  0.69300000  0.69300000  0.00000000  1
  Si  Si90  1  0.80700000  0.19300000  0.50000000  1
  Si  Si91  1  0.30700000  0.69300000  0.00000000  1
  Si  Si92  1  0.80700000  0.80700000  0.50000000  1
  Si  Si93  1  0.30700000  0.30700000  0.00000000  1
  Si  Si94  1  0.19300000  0.80700000  0.50000000  1
  Si  Si95  1  0.69300000  0.30700000  0.00000000  1
