# generated using pymatgen
data_O2
_symmetry_space_group_name_H-M   'P 1'
_cell_length_a   20.27000000
_cell_length_b   20.27000000
_cell_length_c   13.45900000
_cell_angle_alpha   90.00000000
_cell_angle_beta   90.00000000
_cell_angle_gamma   90.00000000
_symmetry_Int_Tables_number   1
_chemical_formula_structural   O2
_chemical_formula_sum   O192
_cell_volume   5529.93836110
_cell_formula_units_Z   96
loop_
 _symmetry_equiv_pos_site_id
 _symmetry_equiv_pos_as_xyz
  1  'x, y, z'
loop_
 _atom_site_type_symbol
 _atom_site_label
 _atom_site_symmetry_multiplicity
 _atom_site_fract_x
 _atom_site_fract_y
 _atom_site_fract_z
 _atom_site_occupancy
  O  O0  1  0.09500000  0.12200000  0.09350000  1
  O  O1  1  0.59500000  0.62200000  0.59350000  1
  O  O2  1  0.87800000  0.09500000  0.90650000  1
  O  O3  1  0.37800000  0.59500000  0.40650000  1
  O  O4  1  0.90500000  0.87800000  0.09350000  1
  O  O5  1  0.40500000  0.37800000  0.59350000  1
  O  O6  1  0.12200000  0.90500000  0.90650000  1
  O  O7  1  0.62200000  0.40500000  0.40650000  1
  O  O8  1  0.90500000  0.12200000  0.09350000  1
  O  O9  1  0.40500000  0.62200000  0.59350000  1
  O  O10  1  0.12200000  0.09500000  0.90650000  1
  O  O11  1  0.62200000  0.59500000  0.40650000  1
  O  O12  1  0.09500000  0.87800000  0.09350000  1
  O  O13  1  0.59500000  0.37800000  0.59350000  1
  O  O14  1  0.87800000  0.90500000  0.90650000  1
  O  O15  1  0.37800000  0.40500000  0.40650000  1
  O  O16  1  0.09760000  0.25160000  0.09620000  1
  O  O17  1  0.59760000  0.75160000  0.59620000  1
  O  O18  1  0.74840000  0.09760000  0.90380000  1
  O  O19  1  0.24840000  0.59760000  0.40380000  1
  O  O20  1  0.90240000  0.74840000  0.09620000  1
  O  O21  1  0.40240000  0.24840000  0.59620000  1
  O  O22  1  0.25160000  0.90240000  0.90380000  1
  O  O23  1  0.75160000  0.40240000  0.40380000  1
  O  O24  1  0.90240000  0.25160000  0.09620000  1
  O  O25  1  0.40240000  0.75160000  0.59620000  1
  O  O26  1  0.25160000  0.09760000  0.90380000  1
  O  O27  1  0.75160000  0.59760000  0.40380000  1
  O  O28  1  0.09760000  0.74840000  0.09620000  1
  O  O29  1  0.59760000  0.24840000  0.59620000  1
  O  O30  1  0.74840000  0.90240000  0.90380000  1
  O  O31  1  0.24840000  0.40240000  0.40380000  1
  O  O32  1  0.08880000  0.18560000  0.26340000  1
  O  O33  1  0.58880000  0.68560000  0.76340000  1
  O  O34  1  0.81440000  0.08880000  0.73660000  1
  O  O35  1  0.31440000  0.58880000  0.23660000  1
  O  O36  1  0.91120000  0.81440000  0.26340000  1
  O  O37  1  0.41120000  0.31440000  0.76340000  1
  O  O38  1  0.18560000  0.91120000  0.73660000  1
  O  O39  1  0.68560000  0.41120000  0.23660000  1
  O  O40  1  0.91120000  0.18560000  0.26340000  1
  O  O41  1  0.41120000  0.68560000  0.76340000  1
  O  O42  1  0.18560000  0.08880000  0.73660000  1
  O  O43  1  0.68560000  0.58880000  0.23660000  1
  O  O44  1  0.08880000  0.81440000  0.26340000  1
  O  O45  1  0.58880000  0.31440000  0.76340000  1
  O  O46  1  0.81440000  0.91120000  0.73660000  1
  O  O47  1  0.31440000  0.41120000  0.23660000  1
  O  O48  1  0.19940000  0.18400000  0.16150000  1
  O  O49  1  0.69940000  0.68400000  0.66150000  1
  O  O50  1  0.81600000  0.19940000  0.83850000  1
  O  O51  1  0.31600000  0.69940000  0.33850000  1
  O  O52  1  0.80060000  0.81600000  0.16150000  1
  O  O53  1  0.30060000  0.31600000  0.66150000  1
  O  O54  1  0.18400000  0.80060000  0.83850000  1
  O  O55  1  0.68400000  0.30060000  0.33850000  1
  O  O56  1  0.80060000  0.18400000  0.16150000  1
  O  O57  1  0.30060000  0.68400000  0.66150000  1
  O  O58  1  0.18400000  0.19940000  0.83850000  1
  O  O59  1  0.68400000  0.69940000  0.33850000  1
  O  O60  1  0.19940000  0.81600000  0.16150000  1
  O  O61  1  0.69940000  0.31600000  0.66150000  1
  O  O62  1  0.81600000  0.80060000  0.83850000  1
  O  O63  1  0.31600000  0.30060000  0.33850000  1
  O  O64  1  0.12070000  0.20020000  0.45140000  1
  O  O65  1  0.62070000  0.70020000  0.95140000  1
  O  O66  1  0.79980000  0.12070000  0.54860000  1
  O  O67  1  0.29980000  0.62070000  0.04860000  1
  O  O68  1  0.87930000  0.79980000  0.45140000  1
  O  O69  1  0.37930000  0.29980000  0.95140000  1
  O  O70  1  0.20020000  0.87930000  0.54860000  1
  O  O71  1  0.70020000  0.37930000  0.04860000  1
  O  O72  1  0.87930000  0.20020000  0.45140000  1
  O  O73  1  0.37930000  0.70020000  0.95140000  1
  O  O74  1  0.20020000  0.12070000  0.54860000  1
  O  O75  1  0.70020000  0.62070000  0.04860000  1
  O  O76  1  0.12070000  0.79980000  0.45140000  1
  O  O77  1  0.62070000  0.29980000  0.95140000  1
  O  O78  1  0.79980000  0.87930000  0.54860000  1
  O  O79  1  0.29980000  0.37930000  0.04860000  1
  O  O80  1  0.09830000  0.30440000  0.34050000  1
  O  O81  1  0.59830000  0.80440000  0.84050000  1
  O  O82  1  0.69560000  0.09830000  0.65950000  1
  O  O83  1  0.19560000  0.59830000  0.15950000  1
  O  O84  1  0.90170000  0.69560000  0.34050000  1
  O  O85  1  0.40170000  0.19560000  0.84050000  1
  O  O86  1  0.30440000  0.90170000  0.65950000  1
  O  O87  1  0.80440000  0.40170000  0.15950000  1
  O  O88  1  0.90170000  0.30440000  0.34050000  1
  O  O89  1  0.40170000  0.80440000  0.84050000  1
  O  O90  1  0.30440000  0.09830000  0.65950000  1
  O  O91  1  0.80440000  0.59830000  0.15950000  1
  O  O92  1  0.09830000  0.69560000  0.34050000  1
  O  O93  1  0.59830000  0.19560000  0.84050000  1
  O  O94  1  0.69560000  0.90170000  0.65950000  1
  O  O95  1  0.19560000  0.40170000  0.15950000  1
  O  O96  1  0.00000000  0.22670000  0.39190000  1
  O  O97  1  0.50000000  0.72670000  0.89190000  1
  O  O98  1  0.77330000  0.00000000  0.60810000  1
  O  O99  1  0.27330000  0.50000000  0.10810000  1
  O  O100  1  0.00000000  0.77330000  0.39190000  1
  O  O101  1  0.50000000  0.27330000  0.89190000  1
  O  O102  1  0.22670000  0.00000000  0.60810000  1
  O  O103  1  0.72670000  0.50000000  0.10810000  1
  O  O104  1  0.30010000  0.12190000  0.08120000  1
  O  O105  1  0.80010000  0.62190000  0.58120000  1
  O  O106  1  0.87810000  0.30010000  0.91880000  1
  O  O107  1  0.37810000  0.80010000  0.41880000  1
  O  O108  1  0.69990000  0.87810000  0.08120000  1
  O  O109  1  0.19990000  0.37810000  0.58120000  1
  O  O110  1  0.12190000  0.69990000  0.91880000  1
  O  O111  1  0.62190000  0.19990000  0.41880000  1
  O  O112  1  0.69990000  0.12190000  0.08120000  1
  O  O113  1  0.19990000  0.62190000  0.58120000  1
  O  O114  1  0.12190000  0.30010000  0.91880000  1
  O  O115  1  0.62190000  0.80010000  0.41880000  1
  O  O116  1  0.30010000  0.87810000  0.08120000  1
  O  O117  1  0.80010000  0.37810000  0.58120000  1
  O  O118  1  0.87810000  0.69990000  0.91880000  1
  O  O119  1  0.37810000  0.19990000  0.41880000  1
  O  O120  1  0.31480000  0.18520000  0.25000000  1
  O  O121  1  0.81480000  0.68520000  0.75000000  1
  O  O122  1  0.81480000  0.31480000  0.75000000  1
  O  O123  1  0.31480000  0.81480000  0.25000000  1
  O  O124  1  0.68520000  0.81480000  0.25000000  1
  O  O125  1  0.18520000  0.31480000  0.75000000  1
  O  O126  1  0.18520000  0.68520000  0.75000000  1
  O  O127  1  0.68520000  0.18520000  0.25000000  1
  O  O128  1  0.29760000  0.25170000  0.08460000  1
  O  O129  1  0.79760000  0.75170000  0.58460000  1
  O  O130  1  0.74830000  0.29760000  0.91540000  1
  O  O131  1  0.24830000  0.79760000  0.41540000  1
  O  O132  1  0.70240000  0.74830000  0.08460000  1
  O  O133  1  0.20240000  0.24830000  0.58460000  1
  O  O134  1  0.25170000  0.70240000  0.91540000  1
  O  O135  1  0.75170000  0.20240000  0.41540000  1
  O  O136  1  0.70240000  0.25170000  0.08460000  1
  O  O137  1  0.20240000  0.75170000  0.58460000  1
  O  O138  1  0.25170000  0.29760000  0.91540000  1
  O  O139  1  0.75170000  0.79760000  0.41540000  1
  O  O140  1  0.29760000  0.74830000  0.08460000  1
  O  O141  1  0.79760000  0.24830000  0.58460000  1
  O  O142  1  0.74830000  0.70240000  0.91540000  1
  O  O143  1  0.24830000  0.20240000  0.41540000  1
  O  O144  1  0.29520000  0.00000000  0.01450000  1
  O  O145  1  0.79520000  0.50000000  0.51450000  1
  O  O146  1  0.00000000  0.29520000  0.98550000  1
  O  O147  1  0.50000000  0.79520000  0.48550000  1
  O  O148  1  0.70480000  0.00000000  0.01450000  1
  O  O149  1  0.20480000  0.50000000  0.51450000  1
  O  O150  1  0.00000000  0.70480000  0.98550000  1
  O  O151  1  0.50000000  0.20480000  0.48550000  1
  O  O152  1  0.37860000  0.08470000  0.93620000  1
  O  O153  1  0.87860000  0.58470000  0.43620000  1
  O  O154  1  0.91530000  0.37860000  0.06380000  1
  O  O155  1  0.41530000  0.87860000  0.56380000  1
  O  O156  1  0.62140000  0.91530000  0.93620000  1
  O  O157  1  0.12140000  0.41530000  0.43620000  1
  O  O158  1  0.08470000  0.62140000  0.06380000  1
  O  O159  1  0.58470000  0.12140000  0.56380000  1
  O  O160  1  0.62140000  0.08470000  0.93620000  1
  O  O161  1  0.12140000  0.58470000  0.43620000  1
  O  O162  1  0.08470000  0.37860000  0.06380000  1
  O  O163  1  0.58470000  0.87860000  0.56380000  1
  O  O164  1  0.37860000  0.91530000  0.93620000  1
  O  O165  1  0.87860000  0.41530000  0.43620000  1
  O  O166  1  0.91530000  0.62140000  0.06380000  1
  O  O167  1  0.41530000  0.12140000  0.56380000  1
  O  O168  1  0.00000000  0.38180000  0.39120000  1
  O  O169  1  0.50000000  0.88180000  0.89120000  1
  O  O170  1  0.61820000  0.00000000  0.60880000  1
  O  O171  1  0.11820000  0.50000000  0.10880000  1
  O  O172  1  0.00000000  0.61820000  0.39120000  1
  O  O173  1  0.50000000  0.11820000  0.89120000  1
  O  O174  1  0.38180000  0.00000000  0.60880000  1
  O  O175  1  0.88180000  0.50000000  0.10880000  1
  O  O176  1  0.08180000  0.41820000  0.25000000  1
  O  O177  1  0.58180000  0.91820000  0.75000000  1
  O  O178  1  0.58180000  0.08180000  0.75000000  1
  O  O179  1  0.08180000  0.58180000  0.25000000  1
  O  O180  1  0.91820000  0.58180000  0.25000000  1
  O  O181  1  0.41820000  0.08180000  0.75000000  1
  O  O182  1  0.41820000  0.91820000  0.75000000  1
  O  O183  1  0.91820000  0.41820000  0.25000000  1
  O  O184  1  0.00000000  0.08760000  0.97100000  1
  O  O185  1  0.50000000  0.58760000  0.47100000  1
  O  O186  1  0.91240000  0.00000000  0.02900000  1
  O  O187  1  0.41240000  0.50000000  0.52900000  1
  O  O188  1  0.00000000  0.91240000  0.97100000  1
  O  O189  1  0.50000000  0.41240000  0.47100000  1
  O  O190  1  0.08760000  0.00000000  0.02900000  1
  O  O191  1  0.58760000  0.50000000  0.52900000  1
