# generated using pymatgen
data_O2
_symmetry_space_group_name_H-M   'P 1'
_cell_length_a   14.00000000
_cell_length_b   7.00000000
_cell_length_c   6.48200000
_cell_angle_alpha   90.00000000
_cell_angle_beta   90.00000000
_cell_angle_gamma   90.00000000
_symmetry_Int_Tables_number   1
_chemical_formula_structural   O2
_chemical_formula_sum   O20
_cell_volume   635.23600000
_cell_formula_units_Z   10
loop_
 _symmetry_equiv_pos_site_id
 _symmetry_equiv_pos_as_xyz
  1  'x, y, z'
loop_
 _atom_site_type_symbol
 _atom_site_label
 _atom_site_symmetry_multiplicity
 _atom_site_fract_x
 _atom_site_fract_y
 _atom_site_fract_z
 _atom_site_occupancy
  O  O0  1  0.00000000  0.00000000  0.50000000  1
  O  O1  1  0.50000000  0.00000000  0.50000000  1
  O  O2  1  0.15510000  0.18980000  0.38180000  1
  O  O3  1  0.34490000  0.18980000  0.38180000  1
  O  O4  1  0.15510000  0.81020000  0.38180000  1
  O  O5  1  0.34490000  0.81020000  0.38180000  1
  O  O6  1  0.84490000  0.81020000  0.61820000  1
  O  O7  1  0.65510000  0.81020000  0.61820000  1
  O  O8  1  0.84490000  0.18980000  0.61820000  1
  O  O9  1  0.65510000  0.18980000  0.61820000  1
  O  O10  1  0.15500000  0.00000000  0.73680000  1
  O  O11  1  0.34500000  0.00000000  0.73680000  1
  O  O12  1  0.84500000  0.00000000  0.26320000  1
  O  O13  1  0.65500000  0.00000000  0.26320000  1
  O  O14  1  0.25000000  0.50000000  0.26350000  1
  O  O15  1  0.75000000  0.50000000  0.73650000  1
  O  O16  1  0.25000000  0.18990000  0.02680000  1
  O  O17  1  0.25000000  0.81010000  0.02680000  1
  O  O18  1  0.75000000  0.81010000  0.97320000  1
  O  O19  1  0.75000000  0.18990000  0.97320000  1
