# generated using pymatgen
data_O2
_symmetry_space_group_name_H-M   'P 1'
_cell_length_a   7.13860000
_cell_length_b   12.70910000
_cell_length_c   13.47050000
_cell_angle_alpha   90.00000000
_cell_angle_beta   90.00000000
_cell_angle_gamma   90.00000000
_symmetry_Int_Tables_number   1
_chemical_formula_structural   O2
_chemical_formula_sum   O40
_cell_volume   1222.11355416
_cell_formula_units_Z   20
loop_
 _symmetry_equiv_pos_site_id
 _symmetry_equiv_pos_as_xyz
  1  'x, y, z'
loop_
 _atom_site_type_symbol
 _atom_site_label
 _atom_site_symmetry_multiplicity
 _atom_site_fract_x
 _atom_site_fract_y
 _atom_site_fract_z
 _atom_site_occupancy
  O  O0  1  0.83600000  0.51400000  0.57980000  1
  O  O1  1  0.16400000  0.48600000  0.07980000  1
  O  O2  1  0.16400000  0.01400000  0.92020000  1
  O  O3  1  0.83600000  0.98600000  0.42020000  1
  O  O4  1  0.16400000  0.48600000  0.42020000  1
  O  O5  1  0.83600000  0.51400000  0.92020000  1
  O  O6  1  0.83600000  0.98600000  0.07980000  1
  O  O7  1  0.16400000  0.01400000  0.57980000  1
  O  O8  1  0.19780000  0.53310000  0.60890000  1
  O  O9  1  0.80220000  0.46690000  0.10890000  1
  O  O10  1  0.80220000  0.03310000  0.89110000  1
  O  O11  1  0.19780000  0.96690000  0.39110000  1
  O  O12  1  0.80220000  0.46690000  0.39110000  1
  O  O13  1  0.19780000  0.53310000  0.89110000  1
  O  O14  1  0.19780000  0.96690000  0.10890000  1
  O  O15  1  0.80220000  0.03310000  0.60890000  1
  O  O16  1  0.98510000  0.70080000  0.58610000  1
  O  O17  1  0.01490000  0.29920000  0.08610000  1
  O  O18  1  0.01490000  0.20080000  0.91390000  1
  O  O19  1  0.98510000  0.79920000  0.41390000  1
  O  O20  1  0.01490000  0.29920000  0.41390000  1
  O  O21  1  0.98510000  0.70080000  0.91390000  1
  O  O22  1  0.98510000  0.79920000  0.08610000  1
  O  O23  1  0.01490000  0.20080000  0.58610000  1
  O  O24  1  0.95860000  0.58860000  0.75000000  1
  O  O25  1  0.04140000  0.41140000  0.25000000  1
  O  O26  1  0.04140000  0.08860000  0.75000000  1
  O  O27  1  0.95860000  0.91140000  0.25000000  1
  O  O28  1  0.27460000  0.15770000  0.04470000  1
  O  O29  1  0.72540000  0.84230000  0.54470000  1
  O  O30  1  0.72540000  0.65770000  0.45530000  1
  O  O31  1  0.27460000  0.34230000  0.95530000  1
  O  O32  1  0.72540000  0.84230000  0.95530000  1
  O  O33  1  0.27460000  0.15770000  0.45530000  1
  O  O34  1  0.27460000  0.34230000  0.54470000  1
  O  O35  1  0.72540000  0.65770000  0.04470000  1
  O  O36  1  0.50000000  0.00000000  0.00000000  1
  O  O37  1  0.50000000  0.00000000  0.50000000  1
  O  O38  1  0.50000000  0.50000000  0.50000000  1
  O  O39  1  0.50000000  0.50000000  0.00000000  1
