# generated using pymatgen
data_Si
_symmetry_space_group_name_H-M   'P 1'
_cell_length_a   7.13860000
_cell_length_b   12.70910000
_cell_length_c   13.47050000
_cell_angle_alpha   90.00000000
_cell_angle_beta   90.00000000
_cell_angle_gamma   90.00000000
_symmetry_Int_Tables_number   1
_chemical_formula_structural   Si
_chemical_formula_sum   Si20
_cell_volume   1222.11355416
_cell_formula_units_Z   20
loop_
 _symmetry_equiv_pos_site_id
 _symmetry_equiv_pos_as_xyz
  1  'x, y, z'
loop_
 _atom_site_type_symbol
 _atom_site_label
 _atom_site_symmetry_multiplicity
 _atom_site_fract_x
 _atom_site_fract_y
 _atom_site_fract_z
 _atom_site_occupancy
  Si  Si0  1  0.99610000  0.58400000  0.63250000  1
  Si  Si1  1  0.00390000  0.41600000  0.13250000  1
  Si  Si2  1  0.00390000  0.08400000  0.86750000  1
  Si  Si3  1  0.99610000  0.91600000  0.36750000  1
  Si  Si4  1  0.00390000  0.41600000  0.36750000  1
  Si  Si5  1  0.99610000  0.58400000  0.86750000  1
  Si  Si6  1  0.99610000  0.91600000  0.13250000  1
  Si  Si7  1  0.00390000  0.08400000  0.63250000  1
  Si  Si8  1  0.28640000  0.03400000  0.01900000  1
  Si  Si9  1  0.71360000  0.96600000  0.51900000  1
  Si  Si10  1  0.71360000  0.53400000  0.48100000  1
  Si  Si11  1  0.28640000  0.46600000  0.98100000  1
  Si  Si12  1  0.71360000  0.96600000  0.98100000  1
  Si  Si13  1  0.28640000  0.03400000  0.48100000  1
  Si  Si14  1  0.28640000  0.46600000  0.51900000  1
  Si  Si15  1  0.71360000  0.53400000  0.01900000  1
  Si  Si16  1  0.14480000  0.25000000  0.00000000  1
  Si  Si17  1  0.85520000  0.75000000  0.50000000  1
  Si  Si18  1  0.85520000  0.75000000  0.00000000  1
  Si  Si19  1  0.14480000  0.25000000  0.50000000  1
