# generated using pymatgen
data_SiO4
_symmetry_space_group_name_H-M   'P 1'
_cell_length_a   24.63082000
_cell_length_b   26.65129000
_cell_length_c   12.72673000
_cell_angle_alpha   90.00000000
_cell_angle_beta   90.00000000
_cell_angle_gamma   90.00000000
_symmetry_Int_Tables_number   1
_chemical_formula_structural   SiO4
_chemical_formula_sum   'Si1 O4'
_cell_volume   8354.37443460
_cell_formula_units_Z   1
loop_
 _symmetry_equiv_pos_site_id
 _symmetry_equiv_pos_as_xyz
  1  'x, y, z'
loop_
 _atom_site_type_symbol
 _atom_site_label
 _atom_site_symmetry_multiplicity
 _atom_site_fract_x
 _atom_site_fract_y
 _atom_site_fract_z
 _atom_site_occupancy
  Si  Si0  1  0.38898000  0.10530000  0.30569000  1
  O  O1  1  0.36363000  0.09236000  0.19231000  1
  O  O2  1  0.39856000  0.16495000  0.31452000  1
  O  O3  1  0.34867000  0.08626000  0.39679000  1
  O  O4  1  0.44673000  0.07775000  0.31875000  1
