# generated using pymatgen
data_Si
_symmetry_space_group_name_H-M   'P 1'
_cell_length_a   24.63082000
_cell_length_b   26.65129000
_cell_length_c   12.72673000
_cell_angle_alpha   90.00000000
_cell_angle_beta   90.00000000
_cell_angle_gamma   90.00000000
_symmetry_Int_Tables_number   1
_chemical_formula_structural   Si
_chemical_formula_sum   Si128
_cell_volume   8354.37443460
_cell_formula_units_Z   128
loop_
 _symmetry_equiv_pos_site_id
 _symmetry_equiv_pos_as_xyz
  1  'x, y, z'
loop_
 _atom_site_type_symbol
 _atom_site_label
 _atom_site_symmetry_multiplicity
 _atom_site_fract_x
 _atom_site_fract_y
 _atom_site_fract_z
 _atom_site_occupancy
  Si  Si0  1  0.13103000  0.09288000  0.30610000  1
  Si  Si1  1  0.86897000  0.90712000  0.30610000  1
  Si  Si2  1  0.13103000  0.90712000  0.69390000  1
  Si  Si3  1  0.86897000  0.09288000  0.69390000  1
  Si  Si4  1  0.86897000  0.90712000  0.69390000  1
  Si  Si5  1  0.13103000  0.09288000  0.69390000  1
  Si  Si6  1  0.86897000  0.09288000  0.30610000  1
  Si  Si7  1  0.13103000  0.90712000  0.30610000  1
  Si  Si8  1  0.63103000  0.59288000  0.30610000  1
  Si  Si9  1  0.36897000  0.40712000  0.30610000  1
  Si  Si10  1  0.63103000  0.40712000  0.69390000  1
  Si  Si11  1  0.36897000  0.59288000  0.69390000  1
  Si  Si12  1  0.36897000  0.40712000  0.69390000  1
  Si  Si13  1  0.63103000  0.59288000  0.69390000  1
  Si  Si14  1  0.36897000  0.59288000  0.30610000  1
  Si  Si15  1  0.63103000  0.40712000  0.30610000  1
  Si  Si16  1  0.20116000  0.05820000  0.11889000  1
  Si  Si17  1  0.79884000  0.94180000  0.11889000  1
  Si  Si18  1  0.20116000  0.94180000  0.88111000  1
  Si  Si19  1  0.79884000  0.05820000  0.88111000  1
  Si  Si20  1  0.79884000  0.94180000  0.88111000  1
  Si  Si21  1  0.20116000  0.05820000  0.88111000  1
  Si  Si22  1  0.79884000  0.05820000  0.11889000  1
  Si  Si23  1  0.20116000  0.94180000  0.11889000  1
  Si  Si24  1  0.70116000  0.55820000  0.11889000  1
  Si  Si25  1  0.29884000  0.44180000  0.11889000  1
  Si  Si26  1  0.70116000  0.44180000  0.88111000  1
  Si  Si27  1  0.29884000  0.55820000  0.88111000  1
  Si  Si28  1  0.29884000  0.44180000  0.88111000  1
  Si  Si29  1  0.70116000  0.55820000  0.88111000  1
  Si  Si30  1  0.29884000  0.55820000  0.11889000  1
  Si  Si31  1  0.70116000  0.44180000  0.11889000  1
  Si  Si32  1  0.06141000  0.18336000  0.37757000  1
  Si  Si33  1  0.93859000  0.81664000  0.37757000  1
  Si  Si34  1  0.06141000  0.81664000  0.62243000  1
  Si  Si35  1  0.93859000  0.18336000  0.62243000  1
  Si  Si36  1  0.93859000  0.81664000  0.62243000  1
  Si  Si37  1  0.06141000  0.18336000  0.62243000  1
  Si  Si38  1  0.93859000  0.18336000  0.37757000  1
  Si  Si39  1  0.06141000  0.81664000  0.37757000  1
  Si  Si40  1  0.56141000  0.68336000  0.37757000  1
  Si  Si41  1  0.43859000  0.31664000  0.37757000  1
  Si  Si42  1  0.56141000  0.31664000  0.62243000  1
  Si  Si43  1  0.43859000  0.68336000  0.62243000  1
  Si  Si44  1  0.43859000  0.31664000  0.62243000  1
  Si  Si45  1  0.56141000  0.68336000  0.62243000  1
  Si  Si46  1  0.43859000  0.68336000  0.37757000  1
  Si  Si47  1  0.56141000  0.31664000  0.37757000  1
  Si  Si48  1  0.06139000  0.29793000  0.37746000  1
  Si  Si49  1  0.93861000  0.70207000  0.37746000  1
  Si  Si50  1  0.06139000  0.70207000  0.62254000  1
  Si  Si51  1  0.93861000  0.29793000  0.62254000  1
  Si  Si52  1  0.93861000  0.70207000  0.62254000  1
  Si  Si53  1  0.06139000  0.29793000  0.62254000  1
  Si  Si54  1  0.93861000  0.29793000  0.37746000  1
  Si  Si55  1  0.06139000  0.70207000  0.37746000  1
  Si  Si56  1  0.56139000  0.79793000  0.37746000  1
  Si  Si57  1  0.43861000  0.20207000  0.37746000  1
  Si  Si58  1  0.56139000  0.20207000  0.62254000  1
  Si  Si59  1  0.43861000  0.79793000  0.62254000  1
  Si  Si60  1  0.43861000  0.20207000  0.62254000  1
  Si  Si61  1  0.56139000  0.79793000  0.62254000  1
  Si  Si62  1  0.43861000  0.79793000  0.37746000  1
  Si  Si63  1  0.56139000  0.20207000  0.37746000  1
  Si  Si64  1  0.11102000  0.39470000  0.30569000  1
  Si  Si65  1  0.88898000  0.60530000  0.30569000  1
  Si  Si66  1  0.11102000  0.60530000  0.69431000  1
  Si  Si67  1  0.88898000  0.39470000  0.69431000  1
  Si  Si68  1  0.88898000  0.60530000  0.69431000  1
  Si  Si69  1  0.11102000  0.39470000  0.69431000  1
  Si  Si70  1  0.88898000  0.39470000  0.30569000  1
  Si  Si71  1  0.11102000  0.60530000  0.30569000  1
  Si  Si72  1  0.61102000  0.89470000  0.30569000  1
  Si  Si73  1  0.38898000  0.10530000  0.30569000  1
  Si  Si74  1  0.61102000  0.10530000  0.69431000  1
  Si  Si75  1  0.38898000  0.89470000  0.69431000  1
  Si  Si76  1  0.38898000  0.10530000  0.69431000  1
  Si  Si77  1  0.61102000  0.89470000  0.69431000  1
  Si  Si78  1  0.38898000  0.89470000  0.30569000  1
  Si  Si79  1  0.61102000  0.10530000  0.30569000  1
  Si  Si80  1  0.17535000  0.44220000  0.12111000  1
  Si  Si81  1  0.82465000  0.55780000  0.12111000  1
  Si  Si82  1  0.17535000  0.55780000  0.87889000  1
  Si  Si83  1  0.82465000  0.44220000  0.87889000  1
  Si  Si84  1  0.82465000  0.55780000  0.87889000  1
  Si  Si85  1  0.17535000  0.44220000  0.87889000  1
  Si  Si86  1  0.82465000  0.44220000  0.12111000  1
  Si  Si87  1  0.17535000  0.55780000  0.12111000  1
  Si  Si88  1  0.67535000  0.94220000  0.12111000  1
  Si  Si89  1  0.32465000  0.05780000  0.12111000  1
  Si  Si90  1  0.67535000  0.05780000  0.87889000  1
  Si  Si91  1  0.32465000  0.94220000  0.87889000  1
  Si  Si92  1  0.32465000  0.05780000  0.87889000  1
  Si  Si93  1  0.67535000  0.94220000  0.87889000  1
  Si  Si94  1  0.32465000  0.94220000  0.12111000  1
  Si  Si95  1  0.67535000  0.05780000  0.12111000  1
  Si  Si96  1  0.19704000  0.05727000  0.50000000  1
  Si  Si97  1  0.80296000  0.94273000  0.50000000  1
  Si  Si98  1  0.19704000  0.94273000  0.50000000  1
  Si  Si99  1  0.80296000  0.05727000  0.50000000  1
  Si  Si100  1  0.69704000  0.55727000  0.50000000  1
  Si  Si101  1  0.30296000  0.44273000  0.50000000  1
  Si  Si102  1  0.69704000  0.44273000  0.50000000  1
  Si  Si103  1  0.30296000  0.55727000  0.50000000  1
  Si  Si104  1  0.17234000  0.44273000  0.50000000  1
  Si  Si105  1  0.82766000  0.55727000  0.50000000  1
  Si  Si106  1  0.17234000  0.55727000  0.50000000  1
  Si  Si107  1  0.82766000  0.44273000  0.50000000  1
  Si  Si108  1  0.67234000  0.94273000  0.50000000  1
  Si  Si109  1  0.32766000  0.05727000  0.50000000  1
  Si  Si110  1  0.67234000  0.05727000  0.50000000  1
  Si  Si111  1  0.32766000  0.94273000  0.50000000  1
  Si  Si112  1  0.06523000  0.00000000  0.38002000  1
  Si  Si113  1  0.93477000  0.00000000  0.38002000  1
  Si  Si114  1  0.06523000  0.00000000  0.61998000  1
  Si  Si115  1  0.93477000  0.00000000  0.61998000  1
  Si  Si116  1  0.56523000  0.50000000  0.38002000  1
  Si  Si117  1  0.43477000  0.50000000  0.38002000  1
  Si  Si118  1  0.56523000  0.50000000  0.61998000  1
  Si  Si119  1  0.43477000  0.50000000  0.61998000  1
  Si  Si120  1  0.00000000  0.43979000  0.38201000  1
  Si  Si121  1  0.00000000  0.56021000  0.38201000  1
  Si  Si122  1  0.00000000  0.56021000  0.61799000  1
  Si  Si123  1  0.00000000  0.43979000  0.61799000  1
  Si  Si124  1  0.50000000  0.93979000  0.38201000  1
  Si  Si125  1  0.50000000  0.06021000  0.38201000  1
  Si  Si126  1  0.50000000  0.06021000  0.61799000  1
  Si  Si127  1  0.50000000  0.93979000  0.61799000  1
