# generated using pymatgen
data_O2
_symmetry_space_group_name_H-M   'P 1'
_cell_length_a   24.63082000
_cell_length_b   26.65129000
_cell_length_c   12.72673000
_cell_angle_alpha   90.00000000
_cell_angle_beta   90.00000000
_cell_angle_gamma   90.00000000
_symmetry_Int_Tables_number   1
_chemical_formula_structural   O2
_chemical_formula_sum   O256
_cell_volume   8354.37443460
_cell_formula_units_Z   128
loop_
 _symmetry_equiv_pos_site_id
 _symmetry_equiv_pos_as_xyz
  1  'x, y, z'
loop_
 _atom_site_type_symbol
 _atom_site_label
 _atom_site_symmetry_multiplicity
 _atom_site_fract_x
 _atom_site_fract_y
 _atom_site_fract_z
 _atom_site_occupancy
  O  O0  1  0.23728000  0.43590000  0.15953000  1
  O  O1  1  0.76272000  0.56410000  0.15953000  1
  O  O2  1  0.23728000  0.56410000  0.84047000  1
  O  O3  1  0.76272000  0.43590000  0.84047000  1
  O  O4  1  0.76272000  0.56410000  0.84047000  1
  O  O5  1  0.23728000  0.43590000  0.84047000  1
  O  O6  1  0.76272000  0.43590000  0.15953000  1
  O  O7  1  0.23728000  0.56410000  0.15953000  1
  O  O8  1  0.73728000  0.93590000  0.15953000  1
  O  O9  1  0.26272000  0.06410000  0.15953000  1
  O  O10  1  0.73728000  0.06410000  0.84047000  1
  O  O11  1  0.26272000  0.93590000  0.84047000  1
  O  O12  1  0.26272000  0.06410000  0.84047000  1
  O  O13  1  0.73728000  0.93590000  0.84047000  1
  O  O14  1  0.26272000  0.93590000  0.15953000  1
  O  O15  1  0.73728000  0.06410000  0.15953000  1
  O  O16  1  0.15731000  0.50000000  0.13261000  1
  O  O17  1  0.84269000  0.50000000  0.13261000  1
  O  O18  1  0.15731000  0.50000000  0.86739000  1
  O  O19  1  0.84269000  0.50000000  0.86739000  1
  O  O20  1  0.65731000  0.00000000  0.13261000  1
  O  O21  1  0.34269000  0.00000000  0.13261000  1
  O  O22  1  0.65731000  0.00000000  0.86739000  1
  O  O23  1  0.34269000  0.00000000  0.86739000  1
  O  O24  1  0.17042000  0.42535000  0.00000000  1
  O  O25  1  0.82958000  0.57465000  0.00000000  1
  O  O26  1  0.17042000  0.57465000  0.00000000  1
  O  O27  1  0.82958000  0.42535000  0.00000000  1
  O  O28  1  0.67042000  0.92535000  0.00000000  1
  O  O29  1  0.32958000  0.07465000  0.00000000  1
  O  O30  1  0.67042000  0.07465000  0.00000000  1
  O  O31  1  0.32958000  0.92535000  0.00000000  1
  O  O32  1  0.13637000  0.40764000  0.19231000  1
  O  O33  1  0.86363000  0.59236000  0.19231000  1
  O  O34  1  0.13637000  0.59236000  0.80769000  1
  O  O35  1  0.86363000  0.40764000  0.80769000  1
  O  O36  1  0.86363000  0.59236000  0.80769000  1
  O  O37  1  0.13637000  0.40764000  0.80769000  1
  O  O38  1  0.86363000  0.40764000  0.19231000  1
  O  O39  1  0.13637000  0.59236000  0.19231000  1
  O  O40  1  0.63637000  0.90764000  0.19231000  1
  O  O41  1  0.36363000  0.09236000  0.19231000  1
  O  O42  1  0.63637000  0.09236000  0.80769000  1
  O  O43  1  0.36363000  0.90764000  0.80769000  1
  O  O44  1  0.36363000  0.09236000  0.80769000  1
  O  O45  1  0.63637000  0.90764000  0.80769000  1
  O  O46  1  0.36363000  0.90764000  0.19231000  1
  O  O47  1  0.63637000  0.09236000  0.19231000  1
  O  O48  1  0.10165000  0.14670000  0.31406000  1
  O  O49  1  0.89835000  0.85330000  0.31406000  1
  O  O50  1  0.10165000  0.85330000  0.68594000  1
  O  O51  1  0.89835000  0.14670000  0.68594000  1
  O  O52  1  0.89835000  0.85330000  0.68594000  1
  O  O53  1  0.10165000  0.14670000  0.68594000  1
  O  O54  1  0.89835000  0.14670000  0.31406000  1
  O  O55  1  0.10165000  0.85330000  0.31406000  1
  O  O56  1  0.60165000  0.64670000  0.31406000  1
  O  O57  1  0.39835000  0.35330000  0.31406000  1
  O  O58  1  0.60165000  0.35330000  0.68594000  1
  O  O59  1  0.39835000  0.64670000  0.68594000  1
  O  O60  1  0.39835000  0.35330000  0.68594000  1
  O  O61  1  0.60165000  0.64670000  0.68594000  1
  O  O62  1  0.39835000  0.64670000  0.31406000  1
  O  O63  1  0.60165000  0.35330000  0.31406000  1
  O  O64  1  0.16036000  0.08920000  0.19331000  1
  O  O65  1  0.83964000  0.91080000  0.19331000  1
  O  O66  1  0.16036000  0.91080000  0.80669000  1
  O  O67  1  0.83964000  0.08920000  0.80669000  1
  O  O68  1  0.83964000  0.91080000  0.80669000  1
  O  O69  1  0.16036000  0.08920000  0.80669000  1
  O  O70  1  0.83964000  0.08920000  0.19331000  1
  O  O71  1  0.16036000  0.91080000  0.19331000  1
  O  O72  1  0.66036000  0.58920000  0.19331000  1
  O  O73  1  0.33964000  0.41080000  0.19331000  1
  O  O74  1  0.66036000  0.41080000  0.80669000  1
  O  O75  1  0.33964000  0.58920000  0.80669000  1
  O  O76  1  0.33964000  0.41080000  0.80669000  1
  O  O77  1  0.66036000  0.58920000  0.80669000  1
  O  O78  1  0.33964000  0.58920000  0.19331000  1
  O  O79  1  0.66036000  0.41080000  0.19331000  1
  O  O80  1  0.17585000  0.08651000  0.39715000  1
  O  O81  1  0.82415000  0.91349000  0.39715000  1
  O  O82  1  0.17585000  0.91349000  0.60285000  1
  O  O83  1  0.82415000  0.08651000  0.60285000  1
  O  O84  1  0.82415000  0.91349000  0.60285000  1
  O  O85  1  0.17585000  0.08651000  0.60285000  1
  O  O86  1  0.82415000  0.08651000  0.39715000  1
  O  O87  1  0.17585000  0.91349000  0.39715000  1
  O  O88  1  0.67585000  0.58651000  0.39715000  1
  O  O89  1  0.32415000  0.41349000  0.39715000  1
  O  O90  1  0.67585000  0.41349000  0.60285000  1
  O  O91  1  0.32415000  0.58651000  0.60285000  1
  O  O92  1  0.32415000  0.41349000  0.60285000  1
  O  O93  1  0.67585000  0.58651000  0.60285000  1
  O  O94  1  0.32415000  0.58651000  0.39715000  1
  O  O95  1  0.67585000  0.41349000  0.39715000  1
  O  O96  1  0.08647000  0.04916000  0.31901000  1
  O  O97  1  0.91353000  0.95084000  0.31901000  1
  O  O98  1  0.08647000  0.95084000  0.68099000  1
  O  O99  1  0.91353000  0.04916000  0.68099000  1
  O  O100  1  0.91353000  0.95084000  0.68099000  1
  O  O101  1  0.08647000  0.04916000  0.68099000  1
  O  O102  1  0.91353000  0.04916000  0.31901000  1
  O  O103  1  0.08647000  0.95084000  0.31901000  1
  O  O104  1  0.58647000  0.54916000  0.31901000  1
  O  O105  1  0.41353000  0.45084000  0.31901000  1
  O  O106  1  0.58647000  0.45084000  0.68099000  1
  O  O107  1  0.41353000  0.54916000  0.68099000  1
  O  O108  1  0.41353000  0.45084000  0.68099000  1
  O  O109  1  0.58647000  0.54916000  0.68099000  1
  O  O110  1  0.41353000  0.54916000  0.31901000  1
  O  O111  1  0.58647000  0.45084000  0.31901000  1
  O  O112  1  0.19680000  0.07855000  0.00000000  1
  O  O113  1  0.80320000  0.92145000  0.00000000  1
  O  O114  1  0.19680000  0.92145000  0.00000000  1
  O  O115  1  0.80320000  0.07855000  0.00000000  1
  O  O116  1  0.69680000  0.57855000  0.00000000  1
  O  O117  1  0.30320000  0.42145000  0.00000000  1
  O  O118  1  0.69680000  0.42145000  0.00000000  1
  O  O119  1  0.30320000  0.57855000  0.00000000  1
  O  O120  1  0.18381000  0.00000000  0.12135000  1
  O  O121  1  0.81619000  0.00000000  0.12135000  1
  O  O122  1  0.18381000  0.00000000  0.87865000  1
  O  O123  1  0.81619000  0.00000000  0.87865000  1
  O  O124  1  0.68381000  0.50000000  0.12135000  1
  O  O125  1  0.31619000  0.50000000  0.12135000  1
  O  O126  1  0.68381000  0.50000000  0.87865000  1
  O  O127  1  0.31619000  0.50000000  0.87865000  1
  O  O128  1  0.00000000  0.00000000  0.37862000  1
  O  O129  1  0.00000000  0.00000000  0.62138000  1
  O  O130  1  0.50000000  0.50000000  0.37862000  1
  O  O131  1  0.50000000  0.50000000  0.62138000  1
  O  O132  1  0.08604000  0.00000000  0.50000000  1
  O  O133  1  0.91396000  0.00000000  0.50000000  1
  O  O134  1  0.58604000  0.50000000  0.50000000  1
  O  O135  1  0.41396000  0.50000000  0.50000000  1
  O  O136  1  0.10144000  0.33505000  0.31452000  1
  O  O137  1  0.89856000  0.66495000  0.31452000  1
  O  O138  1  0.10144000  0.66495000  0.68548000  1
  O  O139  1  0.89856000  0.33505000  0.68548000  1
  O  O140  1  0.89856000  0.66495000  0.68548000  1
  O  O141  1  0.10144000  0.33505000  0.68548000  1
  O  O142  1  0.89856000  0.33505000  0.31452000  1
  O  O143  1  0.10144000  0.66495000  0.31452000  1
  O  O144  1  0.60144000  0.83505000  0.31452000  1
  O  O145  1  0.39856000  0.16495000  0.31452000  1
  O  O146  1  0.60144000  0.16495000  0.68548000  1
  O  O147  1  0.39856000  0.83505000  0.68548000  1
  O  O148  1  0.39856000  0.16495000  0.68548000  1
  O  O149  1  0.60144000  0.83505000  0.68548000  1
  O  O150  1  0.39856000  0.83505000  0.31452000  1
  O  O151  1  0.60144000  0.16495000  0.31452000  1
  O  O152  1  0.15133000  0.41374000  0.39679000  1
  O  O153  1  0.84867000  0.58626000  0.39679000  1
  O  O154  1  0.15133000  0.58626000  0.60321000  1
  O  O155  1  0.84867000  0.41374000  0.60321000  1
  O  O156  1  0.84867000  0.58626000  0.60321000  1
  O  O157  1  0.15133000  0.41374000  0.60321000  1
  O  O158  1  0.84867000  0.41374000  0.39679000  1
  O  O159  1  0.15133000  0.58626000  0.39679000  1
  O  O160  1  0.65133000  0.91374000  0.39679000  1
  O  O161  1  0.34867000  0.08626000  0.39679000  1
  O  O162  1  0.65133000  0.08626000  0.60321000  1
  O  O163  1  0.34867000  0.91374000  0.60321000  1
  O  O164  1  0.34867000  0.08626000  0.60321000  1
  O  O165  1  0.65133000  0.91374000  0.60321000  1
  O  O166  1  0.34867000  0.91374000  0.39679000  1
  O  O167  1  0.65133000  0.08626000  0.39679000  1
  O  O168  1  0.05327000  0.42225000  0.31875000  1
  O  O169  1  0.94673000  0.57775000  0.31875000  1
  O  O170  1  0.05327000  0.57775000  0.68125000  1
  O  O171  1  0.94673000  0.42225000  0.68125000  1
  O  O172  1  0.94673000  0.57775000  0.68125000  1
  O  O173  1  0.05327000  0.42225000  0.68125000  1
  O  O174  1  0.94673000  0.42225000  0.31875000  1
  O  O175  1  0.05327000  0.57775000  0.31875000  1
  O  O176  1  0.55327000  0.92225000  0.31875000  1
  O  O177  1  0.44673000  0.07775000  0.31875000  1
  O  O178  1  0.55327000  0.07775000  0.68125000  1
  O  O179  1  0.44673000  0.92225000  0.68125000  1
  O  O180  1  0.44673000  0.07775000  0.68125000  1
  O  O181  1  0.55327000  0.92225000  0.68125000  1
  O  O182  1  0.44673000  0.92225000  0.31875000  1
  O  O183  1  0.55327000  0.07775000  0.31875000  1
  O  O184  1  0.06331000  0.31269000  0.50000000  1
  O  O185  1  0.93669000  0.68731000  0.50000000  1
  O  O186  1  0.06331000  0.68731000  0.50000000  1
  O  O187  1  0.93669000  0.31269000  0.50000000  1
  O  O188  1  0.56331000  0.81269000  0.50000000  1
  O  O189  1  0.43669000  0.18731000  0.50000000  1
  O  O190  1  0.56331000  0.18731000  0.50000000  1
  O  O191  1  0.43669000  0.81269000  0.50000000  1
  O  O192  1  0.08065000  0.24065000  0.36263000  1
  O  O193  1  0.91935000  0.75935000  0.36263000  1
  O  O194  1  0.08065000  0.75935000  0.63737000  1
  O  O195  1  0.91935000  0.24065000  0.63737000  1
  O  O196  1  0.91935000  0.75935000  0.63737000  1
  O  O197  1  0.08065000  0.24065000  0.63737000  1
  O  O198  1  0.91935000  0.24065000  0.36263000  1
  O  O199  1  0.08065000  0.75935000  0.36263000  1
  O  O200  1  0.58065000  0.74065000  0.36263000  1
  O  O201  1  0.41935000  0.25935000  0.36263000  1
  O  O202  1  0.58065000  0.25935000  0.63737000  1
  O  O203  1  0.41935000  0.74065000  0.63737000  1
  O  O204  1  0.41935000  0.25935000  0.63737000  1
  O  O205  1  0.58065000  0.74065000  0.63737000  1
  O  O206  1  0.41935000  0.74065000  0.36263000  1
  O  O207  1  0.58065000  0.25935000  0.36263000  1
  O  O208  1  0.00000000  0.30408000  0.33566000  1
  O  O209  1  0.00000000  0.69592000  0.33566000  1
  O  O210  1  0.00000000  0.69592000  0.66434000  1
  O  O211  1  0.00000000  0.30408000  0.66434000  1
  O  O212  1  0.50000000  0.80408000  0.33566000  1
  O  O213  1  0.50000000  0.19592000  0.33566000  1
  O  O214  1  0.50000000  0.19592000  0.66434000  1
  O  O215  1  0.50000000  0.80408000  0.66434000  1
  O  O216  1  0.00000000  0.17713000  0.33596000  1
  O  O217  1  0.00000000  0.82287000  0.33596000  1
  O  O218  1  0.00000000  0.82287000  0.66404000  1
  O  O219  1  0.00000000  0.17713000  0.66404000  1
  O  O220  1  0.50000000  0.67713000  0.33596000  1
  O  O221  1  0.50000000  0.32287000  0.33596000  1
  O  O222  1  0.50000000  0.32287000  0.66404000  1
  O  O223  1  0.50000000  0.67713000  0.66404000  1
  O  O224  1  0.06361000  0.16846000  0.50000000  1
  O  O225  1  0.93639000  0.83154000  0.50000000  1
  O  O226  1  0.06361000  0.83154000  0.50000000  1
  O  O227  1  0.93639000  0.16846000  0.50000000  1
  O  O228  1  0.56361000  0.66846000  0.50000000  1
  O  O229  1  0.43639000  0.33154000  0.50000000  1
  O  O230  1  0.56361000  0.33154000  0.50000000  1
  O  O231  1  0.43639000  0.66846000  0.50000000  1
  O  O232  1  0.23765000  0.44228000  0.50000000  1
  O  O233  1  0.76235000  0.55772000  0.50000000  1
  O  O234  1  0.23765000  0.55772000  0.50000000  1
  O  O235  1  0.76235000  0.44228000  0.50000000  1
  O  O236  1  0.73765000  0.94228000  0.50000000  1
  O  O237  1  0.26235000  0.05772000  0.50000000  1
  O  O238  1  0.73765000  0.05772000  0.50000000  1
  O  O239  1  0.26235000  0.94228000  0.50000000  1
  O  O240  1  0.15145000  0.50000000  0.50000000  1
  O  O241  1  0.84855000  0.50000000  0.50000000  1
  O  O242  1  0.65145000  0.00000000  0.50000000  1
  O  O243  1  0.34855000  0.00000000  0.50000000  1
  O  O244  1  0.17615000  0.00000000  0.50000000  1
  O  O245  1  0.82385000  0.00000000  0.50000000  1
  O  O246  1  0.67615000  0.50000000  0.50000000  1
  O  O247  1  0.32385000  0.50000000  0.50000000  1
  O  O248  1  0.00000000  0.41781000  0.50000000  1
  O  O249  1  0.00000000  0.58219000  0.50000000  1
  O  O250  1  0.50000000  0.91781000  0.50000000  1
  O  O251  1  0.50000000  0.08219000  0.50000000  1
  O  O252  1  0.00000000  0.50000000  0.38858000  1
  O  O253  1  0.00000000  0.50000000  0.61142000  1
  O  O254  1  0.50000000  0.00000000  0.38858000  1
  O  O255  1  0.50000000  0.00000000  0.61142000  1
