# generated using pymatgen
data_Si
_symmetry_space_group_name_H-M   'P 1'
_cell_length_a   13.05700000
_cell_length_b   13.05700000
_cell_length_c   12.96900000
_cell_angle_alpha   90.00000000
_cell_angle_beta   90.00000000
_cell_angle_gamma   120.00000000
_symmetry_Int_Tables_number   1
_chemical_formula_structural   Si
_chemical_formula_sum   Si28
_cell_volume   1914.80225460
_cell_formula_units_Z   28
loop_
 _symmetry_equiv_pos_site_id
 _symmetry_equiv_pos_as_xyz
  1  'x, y, z'
loop_
 _atom_site_type_symbol
 _atom_site_label
 _atom_site_symmetry_multiplicity
 _atom_site_fract_x
 _atom_site_fract_y
 _atom_site_fract_z
 _atom_site_occupancy
  Si  Si0  1  0.49160000  0.35570000  0.26590000  1
  Si  Si1  1  0.64430000  0.13590000  0.26590000  1
  Si  Si2  1  0.86410000  0.50840000  0.26590000  1
  Si  Si3  1  0.49160000  0.35570000  0.73410000  1
  Si  Si4  1  0.64430000  0.13590000  0.73410000  1
  Si  Si5  1  0.86410000  0.50840000  0.73410000  1
  Si  Si6  1  0.35570000  0.49160000  0.73410000  1
  Si  Si7  1  0.13590000  0.64430000  0.73410000  1
  Si  Si8  1  0.50840000  0.86410000  0.73410000  1
  Si  Si9  1  0.35570000  0.49160000  0.26590000  1
  Si  Si10  1  0.13590000  0.64430000  0.26590000  1
  Si  Si11  1  0.50840000  0.86410000  0.26590000  1
  Si  Si12  1  0.56290000  0.69670000  0.38170000  1
  Si  Si13  1  0.30330000  0.86620000  0.38170000  1
  Si  Si14  1  0.13380000  0.43710000  0.38170000  1
  Si  Si15  1  0.56290000  0.69670000  0.61830000  1
  Si  Si16  1  0.30330000  0.86620000  0.61830000  1
  Si  Si17  1  0.13380000  0.43710000  0.61830000  1
  Si  Si18  1  0.69670000  0.56290000  0.61830000  1
  Si  Si19  1  0.86620000  0.30330000  0.61830000  1
  Si  Si20  1  0.43710000  0.13380000  0.61830000  1
  Si  Si21  1  0.69670000  0.56290000  0.38170000  1
  Si  Si22  1  0.86620000  0.30330000  0.38170000  1
  Si  Si23  1  0.43710000  0.13380000  0.38170000  1
  Si  Si24  1  0.33333333  0.66666667  0.12390000  1
  Si  Si25  1  0.33333333  0.66666667  0.87610000  1
  Si  Si26  1  0.66666667  0.33333333  0.87610000  1
  Si  Si27  1  0.66666667  0.33333333  0.12390000  1
