# generated using pymatgen
data_O2
_symmetry_space_group_name_H-M   'P 1'
_cell_length_a   13.05700000
_cell_length_b   13.05700000
_cell_length_c   12.96900000
_cell_angle_alpha   90.00000000
_cell_angle_beta   90.00000000
_cell_angle_gamma   120.00000000
_symmetry_Int_Tables_number   1
_chemical_formula_structural   O2
_chemical_formula_sum   O56
_cell_volume   1914.80225460
_cell_formula_units_Z   28
loop_
 _symmetry_equiv_pos_site_id
 _symmetry_equiv_pos_as_xyz
  1  'x, y, z'
loop_
 _atom_site_type_symbol
 _atom_site_label
 _atom_site_symmetry_multiplicity
 _atom_site_fract_x
 _atom_site_fract_y
 _atom_site_fract_z
 _atom_site_occupancy
  O  O0  1  0.41800000  0.22160000  0.30730000  1
  O  O1  1  0.77840000  0.19640000  0.30730000  1
  O  O2  1  0.80360000  0.58200000  0.30730000  1
  O  O3  1  0.41800000  0.22160000  0.69270000  1
  O  O4  1  0.77840000  0.19640000  0.69270000  1
  O  O5  1  0.80360000  0.58200000  0.69270000  1
  O  O6  1  0.22160000  0.41800000  0.69270000  1
  O  O7  1  0.19640000  0.77840000  0.69270000  1
  O  O8  1  0.58200000  0.80360000  0.69270000  1
  O  O9  1  0.22160000  0.41800000  0.30730000  1
  O  O10  1  0.19640000  0.77840000  0.30730000  1
  O  O11  1  0.58200000  0.80360000  0.30730000  1
  O  O12  1  0.40160000  0.40160000  0.23640000  1
  O  O13  1  0.59840000  0.00000000  0.23640000  1
  O  O14  1  0.00000000  0.59840000  0.23640000  1
  O  O15  1  0.40160000  0.40160000  0.76360000  1
  O  O16  1  0.59840000  0.00000000  0.76360000  1
  O  O17  1  0.00000000  0.59840000  0.76360000  1
  O  O18  1  0.56640000  0.36050000  0.16550000  1
  O  O19  1  0.63950000  0.20590000  0.16550000  1
  O  O20  1  0.79410000  0.43360000  0.16550000  1
  O  O21  1  0.56640000  0.36050000  0.83450000  1
  O  O22  1  0.63950000  0.20590000  0.83450000  1
  O  O23  1  0.79410000  0.43360000  0.83450000  1
  O  O24  1  0.36050000  0.56640000  0.83450000  1
  O  O25  1  0.20590000  0.63950000  0.83450000  1
  O  O26  1  0.43360000  0.79410000  0.83450000  1
  O  O27  1  0.36050000  0.56640000  0.16550000  1
  O  O28  1  0.20590000  0.63950000  0.16550000  1
  O  O29  1  0.43360000  0.79410000  0.16550000  1
  O  O30  1  0.58050000  0.43870000  0.35480000  1
  O  O31  1  0.56130000  0.14180000  0.35480000  1
  O  O32  1  0.85820000  0.41950000  0.35480000  1
  O  O33  1  0.58050000  0.43870000  0.64520000  1
  O  O34  1  0.56130000  0.14180000  0.64520000  1
  O  O35  1  0.85820000  0.41950000  0.64520000  1
  O  O36  1  0.43870000  0.58050000  0.64520000  1
  O  O37  1  0.14180000  0.56130000  0.64520000  1
  O  O38  1  0.41950000  0.85820000  0.64520000  1
  O  O39  1  0.43870000  0.58050000  0.35480000  1
  O  O40  1  0.14180000  0.56130000  0.35480000  1
  O  O41  1  0.41950000  0.85820000  0.35480000  1
  O  O42  1  0.66860000  0.66860000  0.36470000  1
  O  O43  1  0.33140000  0.00000000  0.36470000  1
  O  O44  1  0.00000000  0.33140000  0.36470000  1
  O  O45  1  0.66860000  0.66860000  0.63530000  1
  O  O46  1  0.33140000  0.00000000  0.63530000  1
  O  O47  1  0.00000000  0.33140000  0.63530000  1
  O  O48  1  0.56200000  0.73350000  0.50000000  1
  O  O49  1  0.26650000  0.82850000  0.50000000  1
  O  O50  1  0.17150000  0.43800000  0.50000000  1
  O  O51  1  0.73350000  0.56200000  0.50000000  1
  O  O52  1  0.82850000  0.26650000  0.50000000  1
  O  O53  1  0.43800000  0.17150000  0.50000000  1
  O  O54  1  0.33333333  0.66666667  0.00000000  1
  O  O55  1  0.66666667  0.33333333  0.00000000  1
