# generated using pymatgen
data_O2
_symmetry_space_group_name_H-M   'P 1'
_cell_length_a   20.01400000
_cell_length_b   23.58000000
_cell_length_c   12.66900000
_cell_angle_alpha   90.00000000
_cell_angle_beta   90.00000000
_cell_angle_gamma   90.00000000
_symmetry_Int_Tables_number   1
_chemical_formula_structural   O2
_chemical_formula_sum   O192
_cell_volume   5978.88269028
_cell_formula_units_Z   96
loop_
 _symmetry_equiv_pos_site_id
 _symmetry_equiv_pos_as_xyz
  1  'x, y, z'
loop_
 _atom_site_type_symbol
 _atom_site_label
 _atom_site_symmetry_multiplicity
 _atom_site_fract_x
 _atom_site_fract_y
 _atom_site_fract_z
 _atom_site_occupancy
  O  O0  1  0.20020000  0.14490000  0.56300000  1
  O  O1  1  0.70020000  0.64490000  0.06300000  1
  O  O2  1  0.79980000  0.14490000  0.56300000  1
  O  O3  1  0.29980000  0.64490000  0.06300000  1
  O  O4  1  0.20020000  0.35510000  0.56300000  1
  O  O5  1  0.70020000  0.85510000  0.06300000  1
  O  O6  1  0.79980000  0.35510000  0.56300000  1
  O  O7  1  0.29980000  0.85510000  0.06300000  1
  O  O8  1  0.79980000  0.85510000  0.43700000  1
  O  O9  1  0.29980000  0.35510000  0.93700000  1
  O  O10  1  0.20020000  0.85510000  0.43700000  1
  O  O11  1  0.70020000  0.35510000  0.93700000  1
  O  O12  1  0.79980000  0.64490000  0.43700000  1
  O  O13  1  0.29980000  0.14490000  0.93700000  1
  O  O14  1  0.20020000  0.64490000  0.43700000  1
  O  O15  1  0.70020000  0.14490000  0.93700000  1
  O  O16  1  0.12090000  0.17620000  0.71790000  1
  O  O17  1  0.62090000  0.67620000  0.21790000  1
  O  O18  1  0.87910000  0.17620000  0.71790000  1
  O  O19  1  0.37910000  0.67620000  0.21790000  1
  O  O20  1  0.12090000  0.32380000  0.71790000  1
  O  O21  1  0.62090000  0.82380000  0.21790000  1
  O  O22  1  0.87910000  0.32380000  0.71790000  1
  O  O23  1  0.37910000  0.82380000  0.21790000  1
  O  O24  1  0.87910000  0.82380000  0.28210000  1
  O  O25  1  0.37910000  0.32380000  0.78210000  1
  O  O26  1  0.12090000  0.82380000  0.28210000  1
  O  O27  1  0.62090000  0.32380000  0.78210000  1
  O  O28  1  0.87910000  0.67620000  0.28210000  1
  O  O29  1  0.37910000  0.17620000  0.78210000  1
  O  O30  1  0.12090000  0.67620000  0.28210000  1
  O  O31  1  0.62090000  0.17620000  0.78210000  1
  O  O32  1  0.20330000  0.25000000  0.63220000  1
  O  O33  1  0.70330000  0.75000000  0.13220000  1
  O  O34  1  0.79670000  0.25000000  0.63220000  1
  O  O35  1  0.29670000  0.75000000  0.13220000  1
  O  O36  1  0.79670000  0.75000000  0.36780000  1
  O  O37  1  0.29670000  0.25000000  0.86780000  1
  O  O38  1  0.20330000  0.75000000  0.36780000  1
  O  O39  1  0.70330000  0.25000000  0.86780000  1
  O  O40  1  0.25000000  0.16710000  0.75000000  1
  O  O41  1  0.75000000  0.66710000  0.25000000  1
  O  O42  1  0.75000000  0.16710000  0.75000000  1
  O  O43  1  0.25000000  0.66710000  0.25000000  1
  O  O44  1  0.25000000  0.33290000  0.75000000  1
  O  O45  1  0.75000000  0.83290000  0.25000000  1
  O  O46  1  0.75000000  0.33290000  0.75000000  1
  O  O47  1  0.25000000  0.83290000  0.25000000  1
  O  O48  1  0.10380000  0.14410000  0.91520000  1
  O  O49  1  0.60380000  0.64410000  0.41520000  1
  O  O50  1  0.89620000  0.14410000  0.91520000  1
  O  O51  1  0.39620000  0.64410000  0.41520000  1
  O  O52  1  0.10380000  0.35590000  0.91520000  1
  O  O53  1  0.60380000  0.85590000  0.41520000  1
  O  O54  1  0.89620000  0.35590000  0.91520000  1
  O  O55  1  0.39620000  0.85590000  0.41520000  1
  O  O56  1  0.89620000  0.85590000  0.08480000  1
  O  O57  1  0.39620000  0.35590000  0.58480000  1
  O  O58  1  0.10380000  0.85590000  0.08480000  1
  O  O59  1  0.60380000  0.35590000  0.58480000  1
  O  O60  1  0.89620000  0.64410000  0.08480000  1
  O  O61  1  0.39620000  0.14410000  0.58480000  1
  O  O62  1  0.10380000  0.64410000  0.08480000  1
  O  O63  1  0.60380000  0.14410000  0.58480000  1
  O  O64  1  0.00000000  0.16960000  0.79750000  1
  O  O65  1  0.50000000  0.66960000  0.29750000  1
  O  O66  1  0.00000000  0.33040000  0.79750000  1
  O  O67  1  0.50000000  0.83040000  0.29750000  1
  O  O68  1  0.00000000  0.83040000  0.20250000  1
  O  O69  1  0.50000000  0.33040000  0.70250000  1
  O  O70  1  0.00000000  0.66960000  0.20250000  1
  O  O71  1  0.50000000  0.16960000  0.70250000  1
  O  O72  1  0.08170000  0.25000000  0.86070000  1
  O  O73  1  0.58170000  0.75000000  0.36070000  1
  O  O74  1  0.91830000  0.25000000  0.86070000  1
  O  O75  1  0.41830000  0.75000000  0.36070000  1
  O  O76  1  0.91830000  0.75000000  0.13930000  1
  O  O77  1  0.41830000  0.25000000  0.63930000  1
  O  O78  1  0.08170000  0.75000000  0.13930000  1
  O  O79  1  0.58170000  0.25000000  0.63930000  1
  O  O80  1  0.20900000  0.07050000  0.40880000  1
  O  O81  1  0.70900000  0.57050000  0.90880000  1
  O  O82  1  0.79100000  0.07050000  0.40880000  1
  O  O83  1  0.29100000  0.57050000  0.90880000  1
  O  O84  1  0.20900000  0.42950000  0.40880000  1
  O  O85  1  0.70900000  0.92950000  0.90880000  1
  O  O86  1  0.79100000  0.42950000  0.40880000  1
  O  O87  1  0.29100000  0.92950000  0.90880000  1
  O  O88  1  0.79100000  0.92950000  0.59120000  1
  O  O89  1  0.29100000  0.42950000  0.09120000  1
  O  O90  1  0.20900000  0.92950000  0.59120000  1
  O  O91  1  0.70900000  0.42950000  0.09120000  1
  O  O92  1  0.79100000  0.57050000  0.59120000  1
  O  O93  1  0.29100000  0.07050000  0.09120000  1
  O  O94  1  0.20900000  0.57050000  0.59120000  1
  O  O95  1  0.70900000  0.07050000  0.09120000  1
  O  O96  1  0.17620000  0.96290000  0.40000000  1
  O  O97  1  0.67620000  0.46290000  0.90000000  1
  O  O98  1  0.82380000  0.96290000  0.40000000  1
  O  O99  1  0.32380000  0.46290000  0.90000000  1
  O  O100  1  0.17620000  0.53710000  0.40000000  1
  O  O101  1  0.67620000  0.03710000  0.90000000  1
  O  O102  1  0.82380000  0.53710000  0.40000000  1
  O  O103  1  0.32380000  0.03710000  0.90000000  1
  O  O104  1  0.82380000  0.03710000  0.60000000  1
  O  O105  1  0.32380000  0.53710000  0.10000000  1
  O  O106  1  0.17620000  0.03710000  0.60000000  1
  O  O107  1  0.67620000  0.53710000  0.10000000  1
  O  O108  1  0.82380000  0.46290000  0.60000000  1
  O  O109  1  0.32380000  0.96290000  0.10000000  1
  O  O110  1  0.17620000  0.46290000  0.60000000  1
  O  O111  1  0.67620000  0.96290000  0.10000000  1
  O  O112  1  0.12290000  0.03540000  0.26650000  1
  O  O113  1  0.62290000  0.53540000  0.76650000  1
  O  O114  1  0.87710000  0.03540000  0.26650000  1
  O  O115  1  0.37710000  0.53540000  0.76650000  1
  O  O116  1  0.12290000  0.46460000  0.26650000  1
  O  O117  1  0.62290000  0.96460000  0.76650000  1
  O  O118  1  0.87710000  0.46460000  0.26650000  1
  O  O119  1  0.37710000  0.96460000  0.76650000  1
  O  O120  1  0.87710000  0.96460000  0.73350000  1
  O  O121  1  0.37710000  0.46460000  0.23350000  1
  O  O122  1  0.12290000  0.96460000  0.73350000  1
  O  O123  1  0.62290000  0.46460000  0.23350000  1
  O  O124  1  0.87710000  0.53540000  0.73350000  1
  O  O125  1  0.37710000  0.03540000  0.23350000  1
  O  O126  1  0.12290000  0.53540000  0.73350000  1
  O  O127  1  0.62290000  0.03540000  0.23350000  1
  O  O128  1  0.25000000  0.00760000  0.25000000  1
  O  O129  1  0.75000000  0.50760000  0.75000000  1
  O  O130  1  0.75000000  0.00760000  0.25000000  1
  O  O131  1  0.25000000  0.50760000  0.75000000  1
  O  O132  1  0.25000000  0.49240000  0.25000000  1
  O  O133  1  0.75000000  0.99240000  0.75000000  1
  O  O134  1  0.75000000  0.49240000  0.25000000  1
  O  O135  1  0.25000000  0.99240000  0.75000000  1
  O  O136  1  0.10110000  0.07200000  0.07370000  1
  O  O137  1  0.60110000  0.57200000  0.57370000  1
  O  O138  1  0.89890000  0.07200000  0.07370000  1
  O  O139  1  0.39890000  0.57200000  0.57370000  1
  O  O140  1  0.10110000  0.42800000  0.07370000  1
  O  O141  1  0.60110000  0.92800000  0.57370000  1
  O  O142  1  0.89890000  0.42800000  0.07370000  1
  O  O143  1  0.39890000  0.92800000  0.57370000  1
  O  O144  1  0.89890000  0.92800000  0.92630000  1
  O  O145  1  0.39890000  0.42800000  0.42630000  1
  O  O146  1  0.10110000  0.92800000  0.92630000  1
  O  O147  1  0.60110000  0.42800000  0.42630000  1
  O  O148  1  0.89890000  0.57200000  0.92630000  1
  O  O149  1  0.39890000  0.07200000  0.42630000  1
  O  O150  1  0.10110000  0.57200000  0.92630000  1
  O  O151  1  0.60110000  0.07200000  0.42630000  1
  O  O152  1  0.08250000  0.96430000  0.12010000  1
  O  O153  1  0.58250000  0.46430000  0.62010000  1
  O  O154  1  0.91750000  0.96430000  0.12010000  1
  O  O155  1  0.41750000  0.46430000  0.62010000  1
  O  O156  1  0.08250000  0.53570000  0.12010000  1
  O  O157  1  0.58250000  0.03570000  0.62010000  1
  O  O158  1  0.91750000  0.53570000  0.12010000  1
  O  O159  1  0.41750000  0.03570000  0.62010000  1
  O  O160  1  0.91750000  0.03570000  0.87990000  1
  O  O161  1  0.41750000  0.53570000  0.37990000  1
  O  O162  1  0.08250000  0.03570000  0.87990000  1
  O  O163  1  0.58250000  0.53570000  0.37990000  1
  O  O164  1  0.91750000  0.46430000  0.87990000  1
  O  O165  1  0.41750000  0.96430000  0.37990000  1
  O  O166  1  0.08250000  0.46430000  0.87990000  1
  O  O167  1  0.58250000  0.96430000  0.37990000  1
  O  O168  1  0.00000000  0.04150000  0.19350000  1
  O  O169  1  0.50000000  0.54150000  0.69350000  1
  O  O170  1  0.00000000  0.45850000  0.19350000  1
  O  O171  1  0.50000000  0.95850000  0.69350000  1
  O  O172  1  0.00000000  0.95850000  0.80650000  1
  O  O173  1  0.50000000  0.45850000  0.30650000  1
  O  O174  1  0.00000000  0.54150000  0.80650000  1
  O  O175  1  0.50000000  0.04150000  0.30650000  1
  O  O176  1  0.29860000  0.07080000  0.56050000  1
  O  O177  1  0.79860000  0.57080000  0.06050000  1
  O  O178  1  0.70140000  0.07080000  0.56050000  1
  O  O179  1  0.20140000  0.57080000  0.06050000  1
  O  O180  1  0.29860000  0.42920000  0.56050000  1
  O  O181  1  0.79860000  0.92920000  0.06050000  1
  O  O182  1  0.70140000  0.42920000  0.56050000  1
  O  O183  1  0.20140000  0.92920000  0.06050000  1
  O  O184  1  0.70140000  0.92920000  0.43950000  1
  O  O185  1  0.20140000  0.42920000  0.93950000  1
  O  O186  1  0.29860000  0.92920000  0.43950000  1
  O  O187  1  0.79860000  0.42920000  0.93950000  1
  O  O188  1  0.70140000  0.57080000  0.43950000  1
  O  O189  1  0.20140000  0.07080000  0.93950000  1
  O  O190  1  0.29860000  0.57080000  0.43950000  1
  O  O191  1  0.79860000  0.07080000  0.93950000  1
