# generated using pymatgen
data_Si
_symmetry_space_group_name_H-M   'P 1'
_cell_length_a   20.01400000
_cell_length_b   23.58000000
_cell_length_c   12.66900000
_cell_angle_alpha   90.00000000
_cell_angle_beta   90.00000000
_cell_angle_gamma   90.00000000
_symmetry_Int_Tables_number   1
_chemical_formula_structural   Si
_chemical_formula_sum   Si96
_cell_volume   5978.88269028
_cell_formula_units_Z   96
loop_
 _symmetry_equiv_pos_site_id
 _symmetry_equiv_pos_as_xyz
  1  'x, y, z'
loop_
 _atom_site_type_symbol
 _atom_site_label
 _atom_site_symmetry_multiplicity
 _atom_site_fract_x
 _atom_site_fract_y
 _atom_site_fract_z
 _atom_site_occupancy
  Si  Si0  1  0.19350000  0.18470000  0.66570000  1
  Si  Si1  1  0.69350000  0.68470000  0.16570000  1
  Si  Si2  1  0.80650000  0.18470000  0.66570000  1
  Si  Si3  1  0.30650000  0.68470000  0.16570000  1
  Si  Si4  1  0.19350000  0.31530000  0.66570000  1
  Si  Si5  1  0.69350000  0.81530000  0.16570000  1
  Si  Si6  1  0.80650000  0.31530000  0.66570000  1
  Si  Si7  1  0.30650000  0.81530000  0.16570000  1
  Si  Si8  1  0.80650000  0.81530000  0.33430000  1
  Si  Si9  1  0.30650000  0.31530000  0.83430000  1
  Si  Si10  1  0.19350000  0.81530000  0.33430000  1
  Si  Si11  1  0.69350000  0.31530000  0.83430000  1
  Si  Si12  1  0.80650000  0.68470000  0.33430000  1
  Si  Si13  1  0.30650000  0.18470000  0.83430000  1
  Si  Si14  1  0.19350000  0.68470000  0.33430000  1
  Si  Si15  1  0.69350000  0.18470000  0.83430000  1
  Si  Si16  1  0.07670000  0.18490000  0.82290000  1
  Si  Si17  1  0.57670000  0.68490000  0.32290000  1
  Si  Si18  1  0.92330000  0.18490000  0.82290000  1
  Si  Si19  1  0.42330000  0.68490000  0.32290000  1
  Si  Si20  1  0.07670000  0.31510000  0.82290000  1
  Si  Si21  1  0.57670000  0.81510000  0.32290000  1
  Si  Si22  1  0.92330000  0.31510000  0.82290000  1
  Si  Si23  1  0.42330000  0.81510000  0.32290000  1
  Si  Si24  1  0.92330000  0.81510000  0.17710000  1
  Si  Si25  1  0.42330000  0.31510000  0.67710000  1
  Si  Si26  1  0.07670000  0.81510000  0.17710000  1
  Si  Si27  1  0.57670000  0.31510000  0.67710000  1
  Si  Si28  1  0.92330000  0.68490000  0.17710000  1
  Si  Si29  1  0.42330000  0.18490000  0.67710000  1
  Si  Si30  1  0.07670000  0.68490000  0.17710000  1
  Si  Si31  1  0.57670000  0.18490000  0.67710000  1
  Si  Si32  1  0.18960000  0.01920000  0.33080000  1
  Si  Si33  1  0.68960000  0.51920000  0.83080000  1
  Si  Si34  1  0.81040000  0.01920000  0.33080000  1
  Si  Si35  1  0.31040000  0.51920000  0.83080000  1
  Si  Si36  1  0.18960000  0.48080000  0.33080000  1
  Si  Si37  1  0.68960000  0.98080000  0.83080000  1
  Si  Si38  1  0.81040000  0.48080000  0.33080000  1
  Si  Si39  1  0.31040000  0.98080000  0.83080000  1
  Si  Si40  1  0.81040000  0.98080000  0.66920000  1
  Si  Si41  1  0.31040000  0.48080000  0.16920000  1
  Si  Si42  1  0.18960000  0.98080000  0.66920000  1
  Si  Si43  1  0.68960000  0.48080000  0.16920000  1
  Si  Si44  1  0.81040000  0.51920000  0.66920000  1
  Si  Si45  1  0.31040000  0.01920000  0.16920000  1
  Si  Si46  1  0.18960000  0.51920000  0.66920000  1
  Si  Si47  1  0.68960000  0.01920000  0.16920000  1
  Si  Si48  1  0.07660000  0.02830000  0.16340000  1
  Si  Si49  1  0.57660000  0.52830000  0.66340000  1
  Si  Si50  1  0.92340000  0.02830000  0.16340000  1
  Si  Si51  1  0.42340000  0.52830000  0.66340000  1
  Si  Si52  1  0.07660000  0.47170000  0.16340000  1
  Si  Si53  1  0.57660000  0.97170000  0.66340000  1
  Si  Si54  1  0.92340000  0.47170000  0.16340000  1
  Si  Si55  1  0.42340000  0.97170000  0.66340000  1
  Si  Si56  1  0.92340000  0.97170000  0.83660000  1
  Si  Si57  1  0.42340000  0.47170000  0.33660000  1
  Si  Si58  1  0.07660000  0.97170000  0.83660000  1
  Si  Si59  1  0.57660000  0.47170000  0.33660000  1
  Si  Si60  1  0.92340000  0.52830000  0.83660000  1
  Si  Si61  1  0.42340000  0.02830000  0.33660000  1
  Si  Si62  1  0.07660000  0.52830000  0.83660000  1
  Si  Si63  1  0.57660000  0.02830000  0.33660000  1
  Si  Si64  1  0.22100000  0.08090000  0.53300000  1
  Si  Si65  1  0.72100000  0.58090000  0.03300000  1
  Si  Si66  1  0.77900000  0.08090000  0.53300000  1
  Si  Si67  1  0.27900000  0.58090000  0.03300000  1
  Si  Si68  1  0.22100000  0.41910000  0.53300000  1
  Si  Si69  1  0.72100000  0.91910000  0.03300000  1
  Si  Si70  1  0.77900000  0.41910000  0.53300000  1
  Si  Si71  1  0.27900000  0.91910000  0.03300000  1
  Si  Si72  1  0.77900000  0.91910000  0.46700000  1
  Si  Si73  1  0.27900000  0.41910000  0.96700000  1
  Si  Si74  1  0.22100000  0.91910000  0.46700000  1
  Si  Si75  1  0.72100000  0.41910000  0.96700000  1
  Si  Si76  1  0.77900000  0.58090000  0.46700000  1
  Si  Si77  1  0.27900000  0.08090000  0.96700000  1
  Si  Si78  1  0.22100000  0.58090000  0.46700000  1
  Si  Si79  1  0.72100000  0.08090000  0.96700000  1
  Si  Si80  1  0.12220000  0.08060000  0.95210000  1
  Si  Si81  1  0.62220000  0.58060000  0.45210000  1
  Si  Si82  1  0.87780000  0.08060000  0.95210000  1
  Si  Si83  1  0.37780000  0.58060000  0.45210000  1
  Si  Si84  1  0.12220000  0.41940000  0.95210000  1
  Si  Si85  1  0.62220000  0.91940000  0.45210000  1
  Si  Si86  1  0.87780000  0.41940000  0.95210000  1
  Si  Si87  1  0.37780000  0.91940000  0.45210000  1
  Si  Si88  1  0.87780000  0.91940000  0.04790000  1
  Si  Si89  1  0.37780000  0.41940000  0.54790000  1
  Si  Si90  1  0.12220000  0.91940000  0.04790000  1
  Si  Si91  1  0.62220000  0.41940000  0.54790000  1
  Si  Si92  1  0.87780000  0.58060000  0.04790000  1
  Si  Si93  1  0.37780000  0.08060000  0.54790000  1
  Si  Si94  1  0.12220000  0.58060000  0.04790000  1
  Si  Si95  1  0.62220000  0.08060000  0.54790000  1
