# generated using pymatgen
data_Si
_symmetry_space_group_name_H-M   'P 1'
_cell_length_a   7.50300000
_cell_length_b   12.77300000
_cell_length_c   13.70600000
_cell_angle_alpha   90.00000000
_cell_angle_beta   90.00000000
_cell_angle_gamma   90.00000000
_symmetry_Int_Tables_number   1
_chemical_formula_structural   Si
_chemical_formula_sum   Si24
_cell_volume   1313.52573521
_cell_formula_units_Z   24
loop_
 _symmetry_equiv_pos_site_id
 _symmetry_equiv_pos_as_xyz
  1  'x, y, z'
loop_
 _atom_site_type_symbol
 _atom_site_label
 _atom_site_symmetry_multiplicity
 _atom_site_fract_x
 _atom_site_fract_y
 _atom_site_fract_z
 _atom_site_occupancy
  Si  Si0  1  0.04680000  0.62960000  0.66940000  1
  Si  Si1  1  0.45320000  0.37040000  0.16940000  1
  Si  Si2  1  0.95320000  0.12960000  0.33060000  1
  Si  Si3  1  0.54680000  0.87040000  0.83060000  1
  Si  Si4  1  0.95320000  0.37040000  0.33060000  1
  Si  Si5  1  0.54680000  0.62960000  0.83060000  1
  Si  Si6  1  0.04680000  0.87040000  0.66940000  1
  Si  Si7  1  0.45320000  0.12960000  0.16940000  1
  Si  Si8  1  0.65640000  0.56050000  0.62660000  1
  Si  Si9  1  0.84360000  0.43950000  0.12660000  1
  Si  Si10  1  0.34360000  0.06050000  0.37340000  1
  Si  Si11  1  0.15640000  0.93950000  0.87340000  1
  Si  Si12  1  0.34360000  0.43950000  0.37340000  1
  Si  Si13  1  0.15640000  0.56050000  0.87340000  1
  Si  Si14  1  0.65640000  0.93950000  0.62660000  1
  Si  Si15  1  0.84360000  0.06050000  0.12660000  1
  Si  Si16  1  0.32790000  0.63010000  0.50750000  1
  Si  Si17  1  0.17210000  0.36990000  0.00750000  1
  Si  Si18  1  0.67210000  0.13010000  0.49250000  1
  Si  Si19  1  0.82790000  0.86990000  0.99250000  1
  Si  Si20  1  0.67210000  0.36990000  0.49250000  1
  Si  Si21  1  0.82790000  0.63010000  0.99250000  1
  Si  Si22  1  0.32790000  0.86990000  0.50750000  1
  Si  Si23  1  0.17210000  0.13010000  0.00750000  1
