# generated using pymatgen
data_O2
_symmetry_space_group_name_H-M   'P 1'
_cell_length_a   7.50300000
_cell_length_b   12.77300000
_cell_length_c   13.70600000
_cell_angle_alpha   90.00000000
_cell_angle_beta   90.00000000
_cell_angle_gamma   90.00000000
_symmetry_Int_Tables_number   1
_chemical_formula_structural   O2
_chemical_formula_sum   O48
_cell_volume   1313.52573521
_cell_formula_units_Z   24
loop_
 _symmetry_equiv_pos_site_id
 _symmetry_equiv_pos_as_xyz
  1  'x, y, z'
loop_
 _atom_site_type_symbol
 _atom_site_label
 _atom_site_symmetry_multiplicity
 _atom_site_fract_x
 _atom_site_fract_y
 _atom_site_fract_z
 _atom_site_occupancy
  O  O0  1  0.52470000  0.62180000  0.55360000  1
  O  O1  1  0.97530000  0.37820000  0.05360000  1
  O  O2  1  0.47530000  0.12180000  0.44640000  1
  O  O3  1  0.02470000  0.87820000  0.94640000  1
  O  O4  1  0.47530000  0.37820000  0.44640000  1
  O  O5  1  0.02470000  0.62180000  0.94640000  1
  O  O6  1  0.52470000  0.87820000  0.55360000  1
  O  O7  1  0.97530000  0.12180000  0.05360000  1
  O  O8  1  0.07100000  0.55870000  0.76560000  1
  O  O9  1  0.42900000  0.44130000  0.26560000  1
  O  O10  1  0.92900000  0.05870000  0.23440000  1
  O  O11  1  0.57100000  0.94130000  0.73440000  1
  O  O12  1  0.92900000  0.44130000  0.23440000  1
  O  O13  1  0.57100000  0.55870000  0.73440000  1
  O  O14  1  0.07100000  0.94130000  0.76560000  1
  O  O15  1  0.42900000  0.05870000  0.26560000  1
  O  O16  1  0.84570000  0.61970000  0.62960000  1
  O  O17  1  0.65430000  0.38030000  0.12960000  1
  O  O18  1  0.15430000  0.11970000  0.37040000  1
  O  O19  1  0.34570000  0.88030000  0.87040000  1
  O  O20  1  0.15430000  0.38030000  0.37040000  1
  O  O21  1  0.34570000  0.61970000  0.87040000  1
  O  O22  1  0.84570000  0.88030000  0.62960000  1
  O  O23  1  0.65430000  0.11970000  0.12960000  1
  O  O24  1  0.18360000  0.59100000  0.58640000  1
  O  O25  1  0.31640000  0.40900000  0.08640000  1
  O  O26  1  0.81640000  0.09100000  0.41360000  1
  O  O27  1  0.68360000  0.90900000  0.91360000  1
  O  O28  1  0.81640000  0.40900000  0.41360000  1
  O  O29  1  0.68360000  0.59100000  0.91360000  1
  O  O30  1  0.18360000  0.90900000  0.58640000  1
  O  O31  1  0.31640000  0.09100000  0.08640000  1
  O  O32  1  0.31600000  0.55760000  0.41160000  1
  O  O33  1  0.18400000  0.44240000  0.91160000  1
  O  O34  1  0.68400000  0.05760000  0.58840000  1
  O  O35  1  0.81600000  0.94240000  0.08840000  1
  O  O36  1  0.68400000  0.44240000  0.58840000  1
  O  O37  1  0.81600000  0.55760000  0.08840000  1
  O  O38  1  0.31600000  0.94240000  0.41160000  1
  O  O39  1  0.18400000  0.05760000  0.91160000  1
  O  O40  1  0.08800000  0.75000000  0.69620000  1
  O  O41  1  0.41200000  0.25000000  0.19620000  1
  O  O42  1  0.91200000  0.25000000  0.30380000  1
  O  O43  1  0.58800000  0.75000000  0.80380000  1
  O  O44  1  0.28750000  0.75000000  0.47860000  1
  O  O45  1  0.21250000  0.25000000  0.97860000  1
  O  O46  1  0.71250000  0.25000000  0.52140000  1
  O  O47  1  0.78750000  0.75000000  0.02140000  1
