# generated using pymatgen
data_SiO4
_symmetry_space_group_name_H-M   'P 1'
_cell_length_a   7.50300000
_cell_length_b   12.77300000
_cell_length_c   13.70600000
_cell_angle_alpha   90.00000000
_cell_angle_beta   90.00000000
_cell_angle_gamma   90.00000000
_symmetry_Int_Tables_number   1
_chemical_formula_structural   SiO4
_chemical_formula_sum   'Si1 O4'
_cell_volume   1313.52573521
_cell_formula_units_Z   1
loop_
 _symmetry_equiv_pos_site_id
 _symmetry_equiv_pos_as_xyz
  1  'x, y, z'
loop_
 _atom_site_type_symbol
 _atom_site_label
 _atom_site_symmetry_multiplicity
 _atom_site_fract_x
 _atom_site_fract_y
 _atom_site_fract_z
 _atom_site_occupancy
  Si  Si0  1  0.95320000  0.37040000  0.33060000  1
  O  O1  1  0.92900000  0.44130000  0.23440000  1
  O  O2  1  1.15430000  0.38030000  0.37040000  1
  O  O3  1  0.81640000  0.40900000  0.41360000  1
  O  O4  1  0.91200000  0.25000000  0.30380000  1
