# generated using pymatgen
data_O2
_symmetry_space_group_name_H-M   'P 1'
_cell_length_a   19.90500000
_cell_length_b   7.54600000
_cell_length_c   9.06800000
_cell_angle_alpha   90.00000000
_cell_angle_beta   90.00000000
_cell_angle_gamma   90.00000000
_symmetry_Int_Tables_number   1
_chemical_formula_structural   O2
_chemical_formula_sum   O48
_cell_volume   1362.04198284
_cell_formula_units_Z   24
loop_
 _symmetry_equiv_pos_site_id
 _symmetry_equiv_pos_as_xyz
  1  'x, y, z'
loop_
 _atom_site_type_symbol
 _atom_site_label
 _atom_site_symmetry_multiplicity
 _atom_site_fract_x
 _atom_site_fract_y
 _atom_site_fract_z
 _atom_site_occupancy
  O  O0  1  0.97670000  0.26570000  0.31960000  1
  O  O1  1  0.52330000  0.73430000  0.31960000  1
  O  O2  1  0.02330000  0.26570000  0.68040000  1
  O  O3  1  0.47670000  0.73430000  0.68040000  1
  O  O4  1  0.02330000  0.73430000  0.68040000  1
  O  O5  1  0.47670000  0.26570000  0.68040000  1
  O  O6  1  0.97670000  0.73430000  0.31960000  1
  O  O7  1  0.52330000  0.26570000  0.31960000  1
  O  O8  1  0.05350000  0.00000000  0.23790000  1
  O  O9  1  0.44650000  0.00000000  0.23790000  1
  O  O10  1  0.94650000  0.00000000  0.76210000  1
  O  O11  1  0.55350000  0.00000000  0.76210000  1
  O  O12  1  0.09570000  0.22280000  0.44080000  1
  O  O13  1  0.40430000  0.77720000  0.44080000  1
  O  O14  1  0.90430000  0.22280000  0.55920000  1
  O  O15  1  0.59570000  0.77720000  0.55920000  1
  O  O16  1  0.90430000  0.77720000  0.55920000  1
  O  O17  1  0.59570000  0.22280000  0.55920000  1
  O  O18  1  0.09570000  0.77720000  0.44080000  1
  O  O19  1  0.40430000  0.22280000  0.44080000  1
  O  O20  1  0.08600000  0.32590000  0.16480000  1
  O  O21  1  0.41400000  0.67410000  0.16480000  1
  O  O22  1  0.91400000  0.32590000  0.83520000  1
  O  O23  1  0.58600000  0.67410000  0.83520000  1
  O  O24  1  0.91400000  0.67410000  0.83520000  1
  O  O25  1  0.58600000  0.32590000  0.83520000  1
  O  O26  1  0.08600000  0.67410000  0.16480000  1
  O  O27  1  0.41400000  0.32590000  0.16480000  1
  O  O28  1  0.15360000  0.32580000  0.68680000  1
  O  O29  1  0.34640000  0.67420000  0.68680000  1
  O  O30  1  0.84640000  0.32580000  0.31320000  1
  O  O31  1  0.65360000  0.67420000  0.31320000  1
  O  O32  1  0.84640000  0.67420000  0.31320000  1
  O  O33  1  0.65360000  0.32580000  0.31320000  1
  O  O34  1  0.15360000  0.67420000  0.68680000  1
  O  O35  1  0.34640000  0.32580000  0.68680000  1
  O  O36  1  0.10830000  0.00000000  0.66190000  1
  O  O37  1  0.39170000  0.00000000  0.66190000  1
  O  O38  1  0.89170000  0.00000000  0.33810000  1
  O  O39  1  0.60830000  0.00000000  0.33810000  1
  O  O40  1  0.00000000  0.50000000  0.00000000  1
  O  O41  1  0.50000000  0.50000000  0.00000000  1
  O  O42  1  0.12830000  0.50000000  0.93160000  1
  O  O43  1  0.37170000  0.50000000  0.93160000  1
  O  O44  1  0.87170000  0.50000000  0.06840000  1
  O  O45  1  0.62830000  0.50000000  0.06840000  1
  O  O46  1  0.75000000  0.50000000  0.17720000  1
  O  O47  1  0.25000000  0.50000000  0.82280000  1
