# generated using pymatgen
data_Si
_symmetry_space_group_name_H-M   'P 1'
_cell_length_a   19.90500000
_cell_length_b   7.54600000
_cell_length_c   9.06800000
_cell_angle_alpha   90.00000000
_cell_angle_beta   90.00000000
_cell_angle_gamma   90.00000000
_symmetry_Int_Tables_number   1
_chemical_formula_structural   Si
_chemical_formula_sum   Si24
_cell_volume   1362.04198284
_cell_formula_units_Z   24
loop_
 _symmetry_equiv_pos_site_id
 _symmetry_equiv_pos_as_xyz
  1  'x, y, z'
loop_
 _atom_site_type_symbol
 _atom_site_label
 _atom_site_symmetry_multiplicity
 _atom_site_fract_x
 _atom_site_fract_y
 _atom_site_fract_z
 _atom_site_occupancy
  Si  Si0  1  0.05290000  0.20360000  0.29090000  1
  Si  Si1  1  0.44710000  0.79640000  0.29090000  1
  Si  Si2  1  0.94710000  0.20360000  0.70910000  1
  Si  Si3  1  0.55290000  0.79640000  0.70910000  1
  Si  Si4  1  0.94710000  0.79640000  0.70910000  1
  Si  Si5  1  0.55290000  0.20360000  0.70910000  1
  Si  Si6  1  0.05290000  0.79640000  0.29090000  1
  Si  Si7  1  0.44710000  0.20360000  0.29090000  1
  Si  Si8  1  0.09520000  0.20370000  0.61760000  1
  Si  Si9  1  0.40480000  0.79630000  0.61760000  1
  Si  Si10  1  0.90480000  0.20370000  0.38240000  1
  Si  Si11  1  0.59520000  0.79630000  0.38240000  1
  Si  Si12  1  0.90480000  0.79630000  0.38240000  1
  Si  Si13  1  0.59520000  0.20370000  0.38240000  1
  Si  Si14  1  0.09520000  0.79630000  0.61760000  1
  Si  Si15  1  0.40480000  0.20370000  0.61760000  1
  Si  Si16  1  0.07510000  0.50000000  0.06500000  1
  Si  Si17  1  0.42490000  0.50000000  0.06500000  1
  Si  Si18  1  0.92490000  0.50000000  0.93500000  1
  Si  Si19  1  0.57510000  0.50000000  0.93500000  1
  Si  Si20  1  0.67140000  0.50000000  0.21840000  1
  Si  Si21  1  0.82860000  0.50000000  0.21840000  1
  Si  Si22  1  0.32860000  0.50000000  0.78160000  1
  Si  Si23  1  0.17140000  0.50000000  0.78160000  1
