# generated using pymatgen
data_SiO4
_symmetry_space_group_name_H-M   'P 1'
_cell_length_a   14.58700000
_cell_length_b   12.87700000
_cell_length_c   7.61300000
_cell_angle_alpha   90.00000000
_cell_angle_beta   111.15900000
_cell_angle_gamma   90.00000000
_symmetry_Int_Tables_number   1
_chemical_formula_structural   SiO4
_chemical_formula_sum   'Si1 O4'
_cell_volume   1333.59418615
_cell_formula_units_Z   1
loop_
 _symmetry_equiv_pos_site_id
 _symmetry_equiv_pos_as_xyz
  1  'x, y, z'
loop_
 _atom_site_type_symbol
 _atom_site_label
 _atom_site_symmetry_multiplicity
 _atom_site_fract_x
 _atom_site_fract_y
 _atom_site_fract_z
 _atom_site_occupancy
  Si  Si0  1  0.36880000  0.69040000  0.75760000  1
  O  O1  1  0.33020000  0.80820000  0.74630000  1
  O  O2  1  0.30110000  0.62770000  0.57360000  1
  O  O3  1  0.36310000  0.63540000  0.94330000  1
  O  O4  1  0.48090000  0.69030000  0.76740000  1
