# generated using pymatgen
data_Si
_symmetry_space_group_name_H-M   'P 1'
_cell_length_a   14.58700000
_cell_length_b   12.87700000
_cell_length_c   7.61300000
_cell_angle_alpha   90.00000000
_cell_angle_beta   111.15900000
_cell_angle_gamma   90.00000000
_symmetry_Int_Tables_number   1
_chemical_formula_structural   Si
_chemical_formula_sum   Si24
_cell_volume   1333.59418615
_cell_formula_units_Z   24
loop_
 _symmetry_equiv_pos_site_id
 _symmetry_equiv_pos_as_xyz
  1  'x, y, z'
loop_
 _atom_site_type_symbol
 _atom_site_label
 _atom_site_symmetry_multiplicity
 _atom_site_fract_x
 _atom_site_fract_y
 _atom_site_fract_z
 _atom_site_occupancy
  Si  Si0  1  0.26460000  0.38130000  0.34780000  1
  Si  Si1  1  0.76460000  0.88130000  0.34780000  1
  Si  Si2  1  0.73540000  0.38130000  0.65220000  1
  Si  Si3  1  0.23540000  0.88130000  0.65220000  1
  Si  Si4  1  0.73540000  0.61870000  0.65220000  1
  Si  Si5  1  0.23540000  0.11870000  0.65220000  1
  Si  Si6  1  0.26460000  0.61870000  0.34780000  1
  Si  Si7  1  0.76460000  0.11870000  0.34780000  1
  Si  Si8  1  0.36880000  0.30960000  0.75760000  1
  Si  Si9  1  0.86880000  0.80960000  0.75760000  1
  Si  Si10  1  0.63120000  0.30960000  0.24240000  1
  Si  Si11  1  0.13120000  0.80960000  0.24240000  1
  Si  Si12  1  0.63120000  0.69040000  0.24240000  1
  Si  Si13  1  0.13120000  0.19040000  0.24240000  1
  Si  Si14  1  0.36880000  0.69040000  0.75760000  1
  Si  Si15  1  0.86880000  0.19040000  0.75760000  1
  Si  Si16  1  0.42100000  0.37980000  0.16600000  1
  Si  Si17  1  0.92100000  0.87980000  0.16600000  1
  Si  Si18  1  0.57900000  0.37980000  0.83400000  1
  Si  Si19  1  0.07900000  0.87980000  0.83400000  1
  Si  Si20  1  0.57900000  0.62020000  0.83400000  1
  Si  Si21  1  0.07900000  0.12020000  0.83400000  1
  Si  Si22  1  0.42100000  0.62020000  0.16600000  1
  Si  Si23  1  0.92100000  0.12020000  0.16600000  1
