# generated using pymatgen
data_O2
_symmetry_space_group_name_H-M   'P 1'
_cell_length_a   14.58700000
_cell_length_b   12.87700000
_cell_length_c   7.61300000
_cell_angle_alpha   90.00000000
_cell_angle_beta   111.15900000
_cell_angle_gamma   90.00000000
_symmetry_Int_Tables_number   1
_chemical_formula_structural   O2
_chemical_formula_sum   O48
_cell_volume   1333.59418615
_cell_formula_units_Z   24
loop_
 _symmetry_equiv_pos_site_id
 _symmetry_equiv_pos_as_xyz
  1  'x, y, z'
loop_
 _atom_site_type_symbol
 _atom_site_label
 _atom_site_symmetry_multiplicity
 _atom_site_fract_x
 _atom_site_fract_y
 _atom_site_fract_z
 _atom_site_occupancy
  O  O0  1  0.35140000  0.34460000  0.27840000  1
  O  O1  1  0.85140000  0.84460000  0.27840000  1
  O  O2  1  0.64860000  0.34460000  0.72160000  1
  O  O3  1  0.14860000  0.84460000  0.72160000  1
  O  O4  1  0.64860000  0.65540000  0.72160000  1
  O  O5  1  0.14860000  0.15540000  0.72160000  1
  O  O6  1  0.35140000  0.65540000  0.27840000  1
  O  O7  1  0.85140000  0.15540000  0.27840000  1
  O  O8  1  0.23600000  0.50000000  0.28570000  1
  O  O9  1  0.73600000  0.00000000  0.28570000  1
  O  O10  1  0.76400000  0.50000000  0.71430000  1
  O  O11  1  0.26400000  0.00000000  0.71430000  1
  O  O12  1  0.16980000  0.30820000  0.25370000  1
  O  O13  1  0.66980000  0.80820000  0.25370000  1
  O  O14  1  0.83020000  0.30820000  0.74630000  1
  O  O15  1  0.33020000  0.80820000  0.74630000  1
  O  O16  1  0.83020000  0.69180000  0.74630000  1
  O  O17  1  0.33020000  0.19180000  0.74630000  1
  O  O18  1  0.16980000  0.69180000  0.25370000  1
  O  O19  1  0.66980000  0.19180000  0.25370000  1
  O  O20  1  0.30110000  0.37230000  0.57360000  1
  O  O21  1  0.80110000  0.87230000  0.57360000  1
  O  O22  1  0.69890000  0.37230000  0.42640000  1
  O  O23  1  0.19890000  0.87230000  0.42640000  1
  O  O24  1  0.69890000  0.62770000  0.42640000  1
  O  O25  1  0.19890000  0.12770000  0.42640000  1
  O  O26  1  0.30110000  0.62770000  0.57360000  1
  O  O27  1  0.80110000  0.12770000  0.57360000  1
  O  O28  1  0.36310000  0.36460000  0.94330000  1
  O  O29  1  0.86310000  0.86460000  0.94330000  1
  O  O30  1  0.63690000  0.36460000  0.05670000  1
  O  O31  1  0.13690000  0.86460000  0.05670000  1
  O  O32  1  0.63690000  0.63540000  0.05670000  1
  O  O33  1  0.13690000  0.13540000  0.05670000  1
  O  O34  1  0.36310000  0.63540000  0.94330000  1
  O  O35  1  0.86310000  0.13540000  0.94330000  1
  O  O36  1  0.48090000  0.30970000  0.76740000  1
  O  O37  1  0.98090000  0.80970000  0.76740000  1
  O  O38  1  0.51910000  0.30970000  0.23260000  1
  O  O39  1  0.01910000  0.80970000  0.23260000  1
  O  O40  1  0.51910000  0.69030000  0.23260000  1
  O  O41  1  0.01910000  0.19030000  0.23260000  1
  O  O42  1  0.48090000  0.69030000  0.76740000  1
  O  O43  1  0.98090000  0.19030000  0.76740000  1
  O  O44  1  0.45070000  0.50000000  0.20990000  1
  O  O45  1  0.95070000  0.00000000  0.20990000  1
  O  O46  1  0.54930000  0.50000000  0.79010000  1
  O  O47  1  0.04930000  0.00000000  0.79010000  1
