# generated using pymatgen
data_SiO4
_symmetry_space_group_name_H-M   'P 1'
_cell_length_a   9.87700000
_cell_length_b   14.07500000
_cell_length_c   28.13100000
_cell_angle_alpha   90.00000000
_cell_angle_beta   90.00000000
_cell_angle_gamma   90.00000000
_symmetry_Int_Tables_number   1
_chemical_formula_structural   SiO4
_chemical_formula_sum   'Si1 O4'
_cell_volume   3910.73715953
_cell_formula_units_Z   1
loop_
 _symmetry_equiv_pos_site_id
 _symmetry_equiv_pos_as_xyz
  1  'x, y, z'
loop_
 _atom_site_type_symbol
 _atom_site_label
 _atom_site_symmetry_multiplicity
 _atom_site_fract_x
 _atom_site_fract_y
 _atom_site_fract_z
 _atom_site_occupancy
  Si  Si0  1  0.84340000  0.35060000  0.38390000  1
  O  O1  1  0.80180000  0.24140000  0.37520000  1
  O  O2  1  0.82020000  0.40980000  0.33560000  1
  O  O3  1  0.74980000  0.39410000  0.42540000  1
  O  O4  1  1.00000000  0.35670000  0.39940000  1
