# generated using pymatgen
data_SiO4
_symmetry_space_group_name_H-M   'P 1'
_cell_length_a   9.87700000
_cell_length_b   14.07500000
_cell_length_c   28.13100000
_cell_angle_alpha   90.00000000
_cell_angle_beta   90.00000000
_cell_angle_gamma   90.00000000
_symmetry_Int_Tables_number   1
_chemical_formula_structural   SiO4
_chemical_formula_sum   'Si1 O4'
_cell_volume   3910.73715953
_cell_formula_units_Z   1
loop_
 _symmetry_equiv_pos_site_id
 _symmetry_equiv_pos_as_xyz
  1  'x, y, z'
loop_
 _atom_site_type_symbol
 _atom_site_label
 _atom_site_symmetry_multiplicity
 _atom_site_fract_x
 _atom_site_fract_y
 _atom_site_fract_z
 _atom_site_occupancy
  Si  Si0  1  0.84360000  0.13230000  0.36620000  1
  O  O1  1  0.82200000  0.07260000  0.41440000  1
  O  O2  1  0.80180000  0.24140000  0.37520000  1
  O  O3  1  1.00000000  0.12710000  0.35030000  1
  O  O4  1  0.75080000  0.08870000  0.32460000  1
