# generated using pymatgen
data_Si
_symmetry_space_group_name_H-M   'P 1'
_cell_length_a   9.87700000
_cell_length_b   14.07500000
_cell_length_c   28.13100000
_cell_angle_alpha   90.00000000
_cell_angle_beta   90.00000000
_cell_angle_gamma   90.00000000
_symmetry_Int_Tables_number   1
_chemical_formula_structural   Si
_chemical_formula_sum   Si64
_cell_volume   3910.73715953
_cell_formula_units_Z   64
loop_
 _symmetry_equiv_pos_site_id
 _symmetry_equiv_pos_as_xyz
  1  'x, y, z'
loop_
 _atom_site_type_symbol
 _atom_site_label
 _atom_site_symmetry_multiplicity
 _atom_site_fract_x
 _atom_site_fract_y
 _atom_site_fract_z
 _atom_site_occupancy
  Si  Si0  1  0.15640000  0.13230000  0.36620000  1
  Si  Si1  1  0.65640000  0.63230000  0.36620000  1
  Si  Si2  1  0.84360000  0.13230000  0.36620000  1
  Si  Si3  1  0.34360000  0.63230000  0.36620000  1
  Si  Si4  1  0.15640000  0.86770000  0.86620000  1
  Si  Si5  1  0.65640000  0.36770000  0.86620000  1
  Si  Si6  1  0.84360000  0.86770000  0.86620000  1
  Si  Si7  1  0.34360000  0.36770000  0.86620000  1
  Si  Si8  1  0.84360000  0.86770000  0.63380000  1
  Si  Si9  1  0.34360000  0.36770000  0.63380000  1
  Si  Si10  1  0.15640000  0.86770000  0.63380000  1
  Si  Si11  1  0.65640000  0.36770000  0.63380000  1
  Si  Si12  1  0.84360000  0.13230000  0.13380000  1
  Si  Si13  1  0.34360000  0.63230000  0.13380000  1
  Si  Si14  1  0.15640000  0.13230000  0.13380000  1
  Si  Si15  1  0.65640000  0.63230000  0.13380000  1
  Si  Si16  1  0.65610000  0.00460000  0.30470000  1
  Si  Si17  1  0.15610000  0.50460000  0.30470000  1
  Si  Si18  1  0.34390000  0.00460000  0.30470000  1
  Si  Si19  1  0.84390000  0.50460000  0.30470000  1
  Si  Si20  1  0.65610000  0.99540000  0.80470000  1
  Si  Si21  1  0.15610000  0.49540000  0.80470000  1
  Si  Si22  1  0.34390000  0.99540000  0.80470000  1
  Si  Si23  1  0.84390000  0.49540000  0.80470000  1
  Si  Si24  1  0.34390000  0.99540000  0.69530000  1
  Si  Si25  1  0.84390000  0.49540000  0.69530000  1
  Si  Si26  1  0.65610000  0.99540000  0.69530000  1
  Si  Si27  1  0.15610000  0.49540000  0.69530000  1
  Si  Si28  1  0.34390000  0.00460000  0.19530000  1
  Si  Si29  1  0.84390000  0.50460000  0.19530000  1
  Si  Si30  1  0.65610000  0.00460000  0.19530000  1
  Si  Si31  1  0.15610000  0.50460000  0.19530000  1
  Si  Si32  1  0.84350000  0.97840000  0.44590000  1
  Si  Si33  1  0.34350000  0.47840000  0.44590000  1
  Si  Si34  1  0.15650000  0.97840000  0.44590000  1
  Si  Si35  1  0.65650000  0.47840000  0.44590000  1
  Si  Si36  1  0.84350000  0.02160000  0.94590000  1
  Si  Si37  1  0.34350000  0.52160000  0.94590000  1
  Si  Si38  1  0.15650000  0.02160000  0.94590000  1
  Si  Si39  1  0.65650000  0.52160000  0.94590000  1
  Si  Si40  1  0.15650000  0.02160000  0.55410000  1
  Si  Si41  1  0.65650000  0.52160000  0.55410000  1
  Si  Si42  1  0.84350000  0.02160000  0.55410000  1
  Si  Si43  1  0.34350000  0.52160000  0.55410000  1
  Si  Si44  1  0.15650000  0.97840000  0.05410000  1
  Si  Si45  1  0.65650000  0.47840000  0.05410000  1
  Si  Si46  1  0.84350000  0.97840000  0.05410000  1
  Si  Si47  1  0.34350000  0.47840000  0.05410000  1
  Si  Si48  1  0.34340000  0.85060000  0.38390000  1
  Si  Si49  1  0.84340000  0.35060000  0.38390000  1
  Si  Si50  1  0.65660000  0.85060000  0.38390000  1
  Si  Si51  1  0.15660000  0.35060000  0.38390000  1
  Si  Si52  1  0.34340000  0.14940000  0.88390000  1
  Si  Si53  1  0.84340000  0.64940000  0.88390000  1
  Si  Si54  1  0.65660000  0.14940000  0.88390000  1
  Si  Si55  1  0.15660000  0.64940000  0.88390000  1
  Si  Si56  1  0.65660000  0.14940000  0.61610000  1
  Si  Si57  1  0.15660000  0.64940000  0.61610000  1
  Si  Si58  1  0.34340000  0.14940000  0.61610000  1
  Si  Si59  1  0.84340000  0.64940000  0.61610000  1
  Si  Si60  1  0.65660000  0.85060000  0.11610000  1
  Si  Si61  1  0.15660000  0.35060000  0.11610000  1
  Si  Si62  1  0.34340000  0.85060000  0.11610000  1
  Si  Si63  1  0.84340000  0.35060000  0.11610000  1
