# generated using pymatgen
data_O2
_symmetry_space_group_name_H-M   'P 1'
_cell_length_a   9.87700000
_cell_length_b   14.07500000
_cell_length_c   28.13100000
_cell_angle_alpha   90.00000000
_cell_angle_beta   90.00000000
_cell_angle_gamma   90.00000000
_symmetry_Int_Tables_number   1
_chemical_formula_structural   O2
_chemical_formula_sum   O128
_cell_volume   3910.73715953
_cell_formula_units_Z   64
loop_
 _symmetry_equiv_pos_site_id
 _symmetry_equiv_pos_as_xyz
  1  'x, y, z'
loop_
 _atom_site_type_symbol
 _atom_site_label
 _atom_site_symmetry_multiplicity
 _atom_site_fract_x
 _atom_site_fract_y
 _atom_site_fract_z
 _atom_site_occupancy
  O  O0  1  0.17800000  0.07260000  0.41440000  1
  O  O1  1  0.67800000  0.57260000  0.41440000  1
  O  O2  1  0.82200000  0.07260000  0.41440000  1
  O  O3  1  0.32200000  0.57260000  0.41440000  1
  O  O4  1  0.17800000  0.92740000  0.91440000  1
  O  O5  1  0.67800000  0.42740000  0.91440000  1
  O  O6  1  0.82200000  0.92740000  0.91440000  1
  O  O7  1  0.32200000  0.42740000  0.91440000  1
  O  O8  1  0.82200000  0.92740000  0.58560000  1
  O  O9  1  0.32200000  0.42740000  0.58560000  1
  O  O10  1  0.17800000  0.92740000  0.58560000  1
  O  O11  1  0.67800000  0.42740000  0.58560000  1
  O  O12  1  0.82200000  0.07260000  0.08560000  1
  O  O13  1  0.32200000  0.57260000  0.08560000  1
  O  O14  1  0.17800000  0.07260000  0.08560000  1
  O  O15  1  0.67800000  0.57260000  0.08560000  1
  O  O16  1  0.19820000  0.24140000  0.37520000  1
  O  O17  1  0.69820000  0.74140000  0.37520000  1
  O  O18  1  0.80180000  0.24140000  0.37520000  1
  O  O19  1  0.30180000  0.74140000  0.37520000  1
  O  O20  1  0.19820000  0.75860000  0.87520000  1
  O  O21  1  0.69820000  0.25860000  0.87520000  1
  O  O22  1  0.80180000  0.75860000  0.87520000  1
  O  O23  1  0.30180000  0.25860000  0.87520000  1
  O  O24  1  0.80180000  0.75860000  0.62480000  1
  O  O25  1  0.30180000  0.25860000  0.62480000  1
  O  O26  1  0.19820000  0.75860000  0.62480000  1
  O  O27  1  0.69820000  0.25860000  0.62480000  1
  O  O28  1  0.80180000  0.24140000  0.12480000  1
  O  O29  1  0.30180000  0.74140000  0.12480000  1
  O  O30  1  0.19820000  0.24140000  0.12480000  1
  O  O31  1  0.69820000  0.74140000  0.12480000  1
  O  O32  1  0.00000000  0.12710000  0.35030000  1
  O  O33  1  0.50000000  0.62710000  0.35030000  1
  O  O34  1  0.00000000  0.87290000  0.85030000  1
  O  O35  1  0.50000000  0.37290000  0.85030000  1
  O  O36  1  0.00000000  0.87290000  0.64970000  1
  O  O37  1  0.50000000  0.37290000  0.64970000  1
  O  O38  1  0.00000000  0.12710000  0.14970000  1
  O  O39  1  0.50000000  0.62710000  0.14970000  1
  O  O40  1  0.24920000  0.08870000  0.32460000  1
  O  O41  1  0.74920000  0.58870000  0.32460000  1
  O  O42  1  0.75080000  0.08870000  0.32460000  1
  O  O43  1  0.25080000  0.58870000  0.32460000  1
  O  O44  1  0.24920000  0.91130000  0.82460000  1
  O  O45  1  0.74920000  0.41130000  0.82460000  1
  O  O46  1  0.75080000  0.91130000  0.82460000  1
  O  O47  1  0.25080000  0.41130000  0.82460000  1
  O  O48  1  0.75080000  0.91130000  0.67540000  1
  O  O49  1  0.25080000  0.41130000  0.67540000  1
  O  O50  1  0.24920000  0.91130000  0.67540000  1
  O  O51  1  0.74920000  0.41130000  0.67540000  1
  O  O52  1  0.75080000  0.08870000  0.17540000  1
  O  O53  1  0.25080000  0.58870000  0.17540000  1
  O  O54  1  0.24920000  0.08870000  0.17540000  1
  O  O55  1  0.74920000  0.58870000  0.17540000  1
  O  O56  1  0.67980000  0.90980000  0.33560000  1
  O  O57  1  0.17980000  0.40980000  0.33560000  1
  O  O58  1  0.32020000  0.90980000  0.33560000  1
  O  O59  1  0.82020000  0.40980000  0.33560000  1
  O  O60  1  0.67980000  0.09020000  0.83560000  1
  O  O61  1  0.17980000  0.59020000  0.83560000  1
  O  O62  1  0.32020000  0.09020000  0.83560000  1
  O  O63  1  0.82020000  0.59020000  0.83560000  1
  O  O64  1  0.32020000  0.09020000  0.66440000  1
  O  O65  1  0.82020000  0.59020000  0.66440000  1
  O  O66  1  0.67980000  0.09020000  0.66440000  1
  O  O67  1  0.17980000  0.59020000  0.66440000  1
  O  O68  1  0.32020000  0.90980000  0.16440000  1
  O  O69  1  0.82020000  0.40980000  0.16440000  1
  O  O70  1  0.67980000  0.90980000  0.16440000  1
  O  O71  1  0.17980000  0.40980000  0.16440000  1
  O  O72  1  0.69370000  0.98370000  0.25000000  1
  O  O73  1  0.19370000  0.48370000  0.25000000  1
  O  O74  1  0.30630000  0.98370000  0.25000000  1
  O  O75  1  0.80630000  0.48370000  0.25000000  1
  O  O76  1  0.69370000  0.01630000  0.75000000  1
  O  O77  1  0.19370000  0.51630000  0.75000000  1
  O  O78  1  0.30630000  0.01630000  0.75000000  1
  O  O79  1  0.80630000  0.51630000  0.75000000  1
  O  O80  1  0.50000000  0.03650000  0.30840000  1
  O  O81  1  0.00000000  0.53650000  0.30840000  1
  O  O82  1  0.50000000  0.96350000  0.80840000  1
  O  O83  1  0.00000000  0.46350000  0.80840000  1
  O  O84  1  0.50000000  0.96350000  0.69160000  1
  O  O85  1  0.00000000  0.46350000  0.69160000  1
  O  O86  1  0.50000000  0.03650000  0.19160000  1
  O  O87  1  0.00000000  0.53650000  0.19160000  1
  O  O88  1  0.00000000  0.94660000  0.44410000  1
  O  O89  1  0.50000000  0.44660000  0.44410000  1
  O  O90  1  0.00000000  0.05340000  0.94410000  1
  O  O91  1  0.50000000  0.55340000  0.94410000  1
  O  O92  1  0.00000000  0.05340000  0.55590000  1
  O  O93  1  0.50000000  0.55340000  0.55590000  1
  O  O94  1  0.00000000  0.94660000  0.05590000  1
  O  O95  1  0.50000000  0.44660000  0.05590000  1
  O  O96  1  0.75020000  0.89410000  0.42540000  1
  O  O97  1  0.25020000  0.39410000  0.42540000  1
  O  O98  1  0.24980000  0.89410000  0.42540000  1
  O  O99  1  0.74980000  0.39410000  0.42540000  1
  O  O100  1  0.75020000  0.10590000  0.92540000  1
  O  O101  1  0.25020000  0.60590000  0.92540000  1
  O  O102  1  0.24980000  0.10590000  0.92540000  1
  O  O103  1  0.74980000  0.60590000  0.92540000  1
  O  O104  1  0.24980000  0.10590000  0.57460000  1
  O  O105  1  0.74980000  0.60590000  0.57460000  1
  O  O106  1  0.75020000  0.10590000  0.57460000  1
  O  O107  1  0.25020000  0.60590000  0.57460000  1
  O  O108  1  0.24980000  0.89410000  0.07460000  1
  O  O109  1  0.74980000  0.39410000  0.07460000  1
  O  O110  1  0.75020000  0.89410000  0.07460000  1
  O  O111  1  0.25020000  0.39410000  0.07460000  1
  O  O112  1  0.80030000  0.00000000  0.50000000  1
  O  O113  1  0.30030000  0.50000000  0.50000000  1
  O  O114  1  0.19970000  0.00000000  0.50000000  1
  O  O115  1  0.69970000  0.50000000  0.50000000  1
  O  O116  1  0.80030000  0.00000000  0.00000000  1
  O  O117  1  0.30030000  0.50000000  0.00000000  1
  O  O118  1  0.19970000  0.00000000  0.00000000  1
  O  O119  1  0.69970000  0.50000000  0.00000000  1
  O  O120  1  0.50000000  0.85670000  0.39940000  1
  O  O121  1  0.00000000  0.35670000  0.39940000  1
  O  O122  1  0.50000000  0.14330000  0.89940000  1
  O  O123  1  0.00000000  0.64330000  0.89940000  1
  O  O124  1  0.50000000  0.14330000  0.60060000  1
  O  O125  1  0.00000000  0.64330000  0.60060000  1
  O  O126  1  0.50000000  0.85670000  0.10060000  1
  O  O127  1  0.00000000  0.35670000  0.10060000  1
