# generated using pymatgen
data_O2
_symmetry_space_group_name_H-M   'P 1'
_cell_length_a   13.43900000
_cell_length_b   13.43900000
_cell_length_c   21.86000000
_cell_angle_alpha   90.00000000
_cell_angle_beta   90.00000000
_cell_angle_gamma   90.00000000
_symmetry_Int_Tables_number   1
_chemical_formula_structural   O2
_chemical_formula_sum   O112
_cell_volume   3948.06292106
_cell_formula_units_Z   56
loop_
 _symmetry_equiv_pos_site_id
 _symmetry_equiv_pos_as_xyz
  1  'x, y, z'
loop_
 _atom_site_type_symbol
 _atom_site_label
 _atom_site_symmetry_multiplicity
 _atom_site_fract_x
 _atom_site_fract_y
 _atom_site_fract_z
 _atom_site_occupancy
  O  O0  1  0.31390000  0.64990000  0.33430000  1
  O  O1  1  0.81390000  0.14990000  0.83430000  1
  O  O2  1  0.35010000  0.31390000  0.66570000  1
  O  O3  1  0.85010000  0.81390000  0.16570000  1
  O  O4  1  0.68610000  0.35010000  0.33430000  1
  O  O5  1  0.18610000  0.85010000  0.83430000  1
  O  O6  1  0.64990000  0.68610000  0.66570000  1
  O  O7  1  0.14990000  0.18610000  0.16570000  1
  O  O8  1  0.68610000  0.64990000  0.33430000  1
  O  O9  1  0.18610000  0.14990000  0.83430000  1
  O  O10  1  0.64990000  0.31390000  0.66570000  1
  O  O11  1  0.14990000  0.81390000  0.16570000  1
  O  O12  1  0.31390000  0.35010000  0.33430000  1
  O  O13  1  0.81390000  0.85010000  0.83430000  1
  O  O14  1  0.35010000  0.68610000  0.66570000  1
  O  O15  1  0.85010000  0.18610000  0.16570000  1
  O  O16  1  0.37660000  0.68430000  0.44610000  1
  O  O17  1  0.87660000  0.18430000  0.94610000  1
  O  O18  1  0.31570000  0.37660000  0.55390000  1
  O  O19  1  0.81570000  0.87660000  0.05390000  1
  O  O20  1  0.62340000  0.31570000  0.44610000  1
  O  O21  1  0.12340000  0.81570000  0.94610000  1
  O  O22  1  0.68430000  0.62340000  0.55390000  1
  O  O23  1  0.18430000  0.12340000  0.05390000  1
  O  O24  1  0.62340000  0.68430000  0.44610000  1
  O  O25  1  0.12340000  0.18430000  0.94610000  1
  O  O26  1  0.68430000  0.37660000  0.55390000  1
  O  O27  1  0.18430000  0.87660000  0.05390000  1
  O  O28  1  0.37660000  0.31570000  0.44610000  1
  O  O29  1  0.87660000  0.81570000  0.94610000  1
  O  O30  1  0.31570000  0.62340000  0.55390000  1
  O  O31  1  0.81570000  0.12340000  0.05390000  1
  O  O32  1  0.64120000  0.50000000  0.40670000  1
  O  O33  1  0.14120000  0.00000000  0.90670000  1
  O  O34  1  0.50000000  0.64120000  0.59330000  1
  O  O35  1  0.00000000  0.14120000  0.09330000  1
  O  O36  1  0.35880000  0.50000000  0.40670000  1
  O  O37  1  0.85880000  0.00000000  0.90670000  1
  O  O38  1  0.50000000  0.35880000  0.59330000  1
  O  O39  1  0.00000000  0.85880000  0.09330000  1
  O  O40  1  0.50000000  0.61510000  0.36300000  1
  O  O41  1  0.00000000  0.11510000  0.86300000  1
  O  O42  1  0.38490000  0.50000000  0.63700000  1
  O  O43  1  0.88490000  0.00000000  0.13700000  1
  O  O44  1  0.50000000  0.38490000  0.36300000  1
  O  O45  1  0.00000000  0.88490000  0.86300000  1
  O  O46  1  0.61510000  0.50000000  0.63700000  1
  O  O47  1  0.11510000  0.00000000  0.13700000  1
  O  O48  1  0.79240000  0.50000000  0.29340000  1
  O  O49  1  0.29240000  0.00000000  0.79340000  1
  O  O50  1  0.50000000  0.79240000  0.70660000  1
  O  O51  1  0.00000000  0.29240000  0.20660000  1
  O  O52  1  0.20760000  0.50000000  0.29340000  1
  O  O53  1  0.70760000  0.00000000  0.79340000  1
  O  O54  1  0.50000000  0.20760000  0.70660000  1
  O  O55  1  0.00000000  0.70760000  0.20660000  1
  O  O56  1  0.12530000  0.63570000  0.36390000  1
  O  O57  1  0.62530000  0.13570000  0.86390000  1
  O  O58  1  0.36430000  0.12530000  0.63610000  1
  O  O59  1  0.86430000  0.62530000  0.13610000  1
  O  O60  1  0.87470000  0.36430000  0.36390000  1
  O  O61  1  0.37470000  0.86430000  0.86390000  1
  O  O62  1  0.63570000  0.87470000  0.63610000  1
  O  O63  1  0.13570000  0.37470000  0.13610000  1
  O  O64  1  0.87470000  0.63570000  0.36390000  1
  O  O65  1  0.37470000  0.13570000  0.86390000  1
  O  O66  1  0.63570000  0.12530000  0.63610000  1
  O  O67  1  0.13570000  0.62530000  0.13610000  1
  O  O68  1  0.12530000  0.36430000  0.36390000  1
  O  O69  1  0.62530000  0.86430000  0.86390000  1
  O  O70  1  0.36430000  0.87470000  0.63610000  1
  O  O71  1  0.86430000  0.37470000  0.13610000  1
  O  O72  1  0.82100000  0.67900000  0.25000000  1
  O  O73  1  0.32100000  0.17900000  0.75000000  1
  O  O74  1  0.32100000  0.82100000  0.75000000  1
  O  O75  1  0.82100000  0.32100000  0.25000000  1
  O  O76  1  0.17900000  0.32100000  0.25000000  1
  O  O77  1  0.67900000  0.82100000  0.75000000  1
  O  O78  1  0.67900000  0.17900000  0.75000000  1
  O  O79  1  0.17900000  0.67900000  0.25000000  1
  O  O80  1  0.18620000  0.68830000  0.47350000  1
  O  O81  1  0.68620000  0.18830000  0.97350000  1
  O  O82  1  0.31170000  0.18620000  0.52650000  1
  O  O83  1  0.81170000  0.68620000  0.02650000  1
  O  O84  1  0.81380000  0.31170000  0.47350000  1
  O  O85  1  0.31380000  0.81170000  0.97350000  1
  O  O86  1  0.68830000  0.81380000  0.52650000  1
  O  O87  1  0.18830000  0.31380000  0.02650000  1
  O  O88  1  0.81380000  0.68830000  0.47350000  1
  O  O89  1  0.31380000  0.18830000  0.97350000  1
  O  O90  1  0.68830000  0.18620000  0.52650000  1
  O  O91  1  0.18830000  0.68620000  0.02650000  1
  O  O92  1  0.18620000  0.31170000  0.47350000  1
  O  O93  1  0.68620000  0.81170000  0.97350000  1
  O  O94  1  0.31170000  0.81380000  0.52650000  1
  O  O95  1  0.81170000  0.31380000  0.02650000  1
  O  O96  1  0.85720000  0.50000000  0.44980000  1
  O  O97  1  0.35720000  0.00000000  0.94980000  1
  O  O98  1  0.50000000  0.85720000  0.55020000  1
  O  O99  1  0.00000000  0.35720000  0.05020000  1
  O  O100  1  0.14280000  0.50000000  0.44980000  1
  O  O101  1  0.64280000  0.00000000  0.94980000  1
  O  O102  1  0.50000000  0.14280000  0.55020000  1
  O  O103  1  0.00000000  0.64280000  0.05020000  1
  O  O104  1  0.00000000  0.63330000  0.45590000  1
  O  O105  1  0.50000000  0.13330000  0.95590000  1
  O  O106  1  0.36670000  0.00000000  0.54410000  1
  O  O107  1  0.86670000  0.50000000  0.04410000  1
  O  O108  1  0.00000000  0.36670000  0.45590000  1
  O  O109  1  0.50000000  0.86670000  0.95590000  1
  O  O110  1  0.63330000  0.00000000  0.54410000  1
  O  O111  1  0.13330000  0.50000000  0.04410000  1
