# generated using pymatgen
data_Si
_symmetry_space_group_name_H-M   'P 1'
_cell_length_a   13.43900000
_cell_length_b   13.43900000
_cell_length_c   21.86000000
_cell_angle_alpha   90.00000000
_cell_angle_beta   90.00000000
_cell_angle_gamma   90.00000000
_symmetry_Int_Tables_number   1
_chemical_formula_structural   Si
_chemical_formula_sum   Si56
_cell_volume   3948.06292106
_cell_formula_units_Z   56
loop_
 _symmetry_equiv_pos_site_id
 _symmetry_equiv_pos_as_xyz
  1  'x, y, z'
loop_
 _atom_site_type_symbol
 _atom_site_label
 _atom_site_symmetry_multiplicity
 _atom_site_fract_x
 _atom_site_fract_y
 _atom_site_fract_z
 _atom_site_occupancy
  Si  Si0  1  0.38730000  0.61220000  0.38770000  1
  Si  Si1  1  0.88730000  0.11220000  0.88770000  1
  Si  Si2  1  0.38780000  0.38730000  0.61230000  1
  Si  Si3  1  0.88780000  0.88730000  0.11230000  1
  Si  Si4  1  0.61270000  0.38780000  0.38770000  1
  Si  Si5  1  0.11270000  0.88780000  0.88770000  1
  Si  Si6  1  0.61220000  0.61270000  0.61230000  1
  Si  Si7  1  0.11220000  0.11270000  0.11230000  1
  Si  Si8  1  0.61270000  0.61220000  0.38770000  1
  Si  Si9  1  0.11270000  0.11220000  0.88770000  1
  Si  Si10  1  0.61220000  0.38730000  0.61230000  1
  Si  Si11  1  0.11220000  0.88730000  0.11230000  1
  Si  Si12  1  0.38730000  0.38780000  0.38770000  1
  Si  Si13  1  0.88730000  0.88780000  0.88770000  1
  Si  Si14  1  0.38780000  0.61270000  0.61230000  1
  Si  Si15  1  0.88780000  0.11270000  0.11230000  1
  Si  Si16  1  0.11400000  0.61430000  0.43610000  1
  Si  Si17  1  0.61400000  0.11430000  0.93610000  1
  Si  Si18  1  0.38570000  0.11400000  0.56390000  1
  Si  Si19  1  0.88570000  0.61400000  0.06390000  1
  Si  Si20  1  0.88600000  0.38570000  0.43610000  1
  Si  Si21  1  0.38600000  0.88570000  0.93610000  1
  Si  Si22  1  0.61430000  0.88600000  0.56390000  1
  Si  Si23  1  0.11430000  0.38600000  0.06390000  1
  Si  Si24  1  0.88600000  0.61430000  0.43610000  1
  Si  Si25  1  0.38600000  0.11430000  0.93610000  1
  Si  Si26  1  0.61430000  0.11400000  0.56390000  1
  Si  Si27  1  0.11430000  0.61400000  0.06390000  1
  Si  Si28  1  0.11400000  0.38570000  0.43610000  1
  Si  Si29  1  0.61400000  0.88570000  0.93610000  1
  Si  Si30  1  0.38570000  0.88600000  0.56390000  1
  Si  Si31  1  0.88570000  0.38600000  0.06390000  1
  Si  Si32  1  0.20550000  0.38370000  0.31050000  1
  Si  Si33  1  0.70550000  0.88370000  0.81050000  1
  Si  Si34  1  0.61630000  0.20550000  0.68950000  1
  Si  Si35  1  0.11630000  0.70550000  0.18950000  1
  Si  Si36  1  0.79450000  0.61630000  0.31050000  1
  Si  Si37  1  0.29450000  0.11630000  0.81050000  1
  Si  Si38  1  0.38370000  0.79450000  0.68950000  1
  Si  Si39  1  0.88370000  0.29450000  0.18950000  1
  Si  Si40  1  0.79450000  0.38370000  0.31050000  1
  Si  Si41  1  0.29450000  0.88370000  0.81050000  1
  Si  Si42  1  0.38370000  0.20550000  0.68950000  1
  Si  Si43  1  0.88370000  0.70550000  0.18950000  1
  Si  Si44  1  0.20550000  0.61630000  0.31050000  1
  Si  Si45  1  0.70550000  0.11630000  0.81050000  1
  Si  Si46  1  0.61630000  0.79450000  0.68950000  1
  Si  Si47  1  0.11630000  0.29450000  0.18950000  1
  Si  Si48  1  0.70300000  0.29700000  0.50000000  1
  Si  Si49  1  0.20300000  0.79700000  0.00000000  1
  Si  Si50  1  0.70300000  0.70300000  0.50000000  1
  Si  Si51  1  0.20300000  0.20300000  0.00000000  1
  Si  Si52  1  0.29700000  0.70300000  0.50000000  1
  Si  Si53  1  0.79700000  0.20300000  0.00000000  1
  Si  Si54  1  0.29700000  0.29700000  0.50000000  1
  Si  Si55  1  0.79700000  0.79700000  0.00000000  1
