# generated using pymatgen
data_O2
_symmetry_space_group_name_H-M   'P 1'
_cell_length_a   29.88600000
_cell_length_b   8.39000000
_cell_length_c   24.73100000
_cell_angle_alpha   90.00000000
_cell_angle_beta   105.04800000
_cell_angle_gamma   90.00000000
_symmetry_Int_Tables_number   1
_chemical_formula_structural   O2
_chemical_formula_sum   O224
_cell_volume   5988.49313709
_cell_formula_units_Z   112
loop_
 _symmetry_equiv_pos_site_id
 _symmetry_equiv_pos_as_xyz
  1  'x, y, z'
loop_
 _atom_site_type_symbol
 _atom_site_label
 _atom_site_symmetry_multiplicity
 _atom_site_fract_x
 _atom_site_fract_y
 _atom_site_fract_z
 _atom_site_occupancy
  O  O0  1  0.12720000  0.00000000  0.19950000  1
  O  O1  1  0.87280000  0.00000000  0.80050000  1
  O  O2  1  0.00720000  0.26930000  0.17610000  1
  O  O3  1  0.99280000  0.26930000  0.82390000  1
  O  O4  1  0.99280000  0.73070000  0.82390000  1
  O  O5  1  0.00720000  0.73070000  0.17610000  1
  O  O6  1  0.05340000  0.50000000  0.23840000  1
  O  O7  1  0.94660000  0.50000000  0.76160000  1
  O  O8  1  0.20610000  0.00000000  0.02390000  1
  O  O9  1  0.79390000  0.00000000  0.97610000  1
  O  O10  1  0.75880000  0.23050000  0.16320000  1
  O  O11  1  0.24120000  0.23050000  0.83680000  1
  O  O12  1  0.24120000  0.76950000  0.83680000  1
  O  O13  1  0.75880000  0.76950000  0.16320000  1
  O  O14  1  0.82960000  0.20660000  0.25150000  1
  O  O15  1  0.17040000  0.20660000  0.74850000  1
  O  O16  1  0.17040000  0.79340000  0.74850000  1
  O  O17  1  0.82960000  0.79340000  0.25150000  1
  O  O18  1  0.84240000  0.29660000  0.15450000  1
  O  O19  1  0.15760000  0.29660000  0.84550000  1
  O  O20  1  0.15760000  0.70340000  0.84550000  1
  O  O21  1  0.84240000  0.70340000  0.15450000  1
  O  O22  1  0.81960000  0.00000000  0.16910000  1
  O  O23  1  0.18040000  0.00000000  0.83090000  1
  O  O24  1  0.94460000  0.20470000  0.23030000  1
  O  O25  1  0.05540000  0.20470000  0.76970000  1
  O  O26  1  0.05540000  0.79530000  0.76970000  1
  O  O27  1  0.94460000  0.79530000  0.23030000  1
  O  O28  1  0.96100000  0.00000000  0.15670000  1
  O  O29  1  0.03900000  0.00000000  0.84330000  1
  O  O30  1  0.83930000  0.20230000  0.05190000  1
  O  O31  1  0.16070000  0.20230000  0.94810000  1
  O  O32  1  0.16070000  0.79770000  0.94810000  1
  O  O33  1  0.83930000  0.79770000  0.05190000  1
  O  O34  1  0.85990000  0.50000000  0.08180000  1
  O  O35  1  0.14010000  0.50000000  0.91820000  1
  O  O36  1  0.19290000  0.50000000  0.13380000  1
  O  O37  1  0.80710000  0.50000000  0.86620000  1
  O  O38  1  0.91910000  0.27100000  0.12260000  1
  O  O39  1  0.08090000  0.27100000  0.87740000  1
  O  O40  1  0.08090000  0.72900000  0.87740000  1
  O  O41  1  0.91910000  0.72900000  0.12260000  1
  O  O42  1  0.75080000  0.24550000  0.00520000  1
  O  O43  1  0.24920000  0.24550000  0.99480000  1
  O  O44  1  0.24920000  0.75450000  0.99480000  1
  O  O45  1  0.75080000  0.75450000  0.00520000  1
  O  O46  1  0.16460000  0.20940000  0.14530000  1
  O  O47  1  0.83540000  0.20940000  0.85470000  1
  O  O48  1  0.83540000  0.79060000  0.85470000  1
  O  O49  1  0.16460000  0.79060000  0.14530000  1
  O  O50  1  0.09720000  0.29480000  0.19000000  1
  O  O51  1  0.90280000  0.29480000  0.81000000  1
  O  O52  1  0.90280000  0.70520000  0.81000000  1
  O  O53  1  0.09720000  0.70520000  0.19000000  1
  O  O54  1  0.18860000  0.28900000  0.05380000  1
  O  O55  1  0.81140000  0.28900000  0.94620000  1
  O  O56  1  0.81140000  0.71100000  0.94620000  1
  O  O57  1  0.18860000  0.71100000  0.05380000  1
  O  O58  1  0.75050000  0.21380000  0.33660000  1
  O  O59  1  0.24950000  0.21380000  0.66340000  1
  O  O60  1  0.24950000  0.78620000  0.66340000  1
  O  O61  1  0.75050000  0.78620000  0.33660000  1
  O  O62  1  0.17930000  0.22930000  0.25510000  1
  O  O63  1  0.82070000  0.22930000  0.74490000  1
  O  O64  1  0.82070000  0.77070000  0.74490000  1
  O  O65  1  0.17930000  0.77070000  0.25510000  1
  O  O66  1  0.16970000  0.29750000  0.35560000  1
  O  O67  1  0.83030000  0.29750000  0.64440000  1
  O  O68  1  0.83030000  0.70250000  0.64440000  1
  O  O69  1  0.16970000  0.70250000  0.35560000  1
  O  O70  1  0.17970000  0.00000000  0.32750000  1
  O  O71  1  0.82030000  0.00000000  0.67250000  1
  O  O72  1  0.06410000  0.20340000  0.27380000  1
  O  O73  1  0.93590000  0.20340000  0.72620000  1
  O  O74  1  0.93590000  0.79660000  0.72620000  1
  O  O75  1  0.06410000  0.79660000  0.27380000  1
  O  O76  1  0.04580000  0.00000000  0.34650000  1
  O  O77  1  0.95420000  0.00000000  0.65350000  1
  O  O78  1  0.16820000  0.20560000  0.45700000  1
  O  O79  1  0.83180000  0.20560000  0.54300000  1
  O  O80  1  0.83180000  0.79440000  0.54300000  1
  O  O81  1  0.16820000  0.79440000  0.45700000  1
  O  O82  1  0.14660000  0.50000000  0.42470000  1
  O  O83  1  0.85340000  0.50000000  0.57530000  1
  O  O84  1  0.21260000  0.00000000  0.53210000  1
  O  O85  1  0.78740000  0.00000000  0.46790000  1
  O  O86  1  0.78670000  0.50000000  0.35510000  1
  O  O87  1  0.21330000  0.50000000  0.64490000  1
  O  O88  1  0.87770000  0.00000000  0.32400000  1
  O  O89  1  0.12230000  0.00000000  0.67600000  1
  O  O90  1  0.00170000  0.27340000  0.32770000  1
  O  O91  1  0.99830000  0.27340000  0.67230000  1
  O  O92  1  0.99830000  0.72660000  0.67230000  1
  O  O93  1  0.00170000  0.72660000  0.32770000  1
  O  O94  1  0.95210000  0.50000000  0.26680000  1
  O  O95  1  0.04790000  0.50000000  0.73320000  1
  O  O96  1  0.84080000  0.25120000  0.35920000  1
  O  O97  1  0.15920000  0.25120000  0.64080000  1
  O  O98  1  0.15920000  0.74880000  0.64080000  1
  O  O99  1  0.84080000  0.74880000  0.35920000  1
  O  O100  1  0.91150000  0.28470000  0.31520000  1
  O  O101  1  0.08850000  0.28470000  0.68480000  1
  O  O102  1  0.08850000  0.71530000  0.68480000  1
  O  O103  1  0.91150000  0.71530000  0.31520000  1
  O  O104  1  0.74180000  0.23160000  0.50150000  1
  O  O105  1  0.25820000  0.23160000  0.49850000  1
  O  O106  1  0.25820000  0.76840000  0.49850000  1
  O  O107  1  0.74180000  0.76840000  0.50150000  1
  O  O108  1  0.79790000  0.29550000  0.43820000  1
  O  O109  1  0.20210000  0.29550000  0.56180000  1
  O  O110  1  0.20210000  0.70450000  0.56180000  1
  O  O111  1  0.79790000  0.70450000  0.43820000  1
  O  O112  1  0.09010000  0.26630000  0.38150000  1
  O  O113  1  0.90990000  0.26630000  0.61850000  1
  O  O114  1  0.90990000  0.73370000  0.61850000  1
  O  O115  1  0.09010000  0.73370000  0.38150000  1
  O  O116  1  0.67060000  0.19710000  0.15890000  1
  O  O117  1  0.32940000  0.19710000  0.84110000  1
  O  O118  1  0.32940000  0.80290000  0.84110000  1
  O  O119  1  0.67060000  0.80290000  0.15890000  1
  O  O120  1  0.59440000  0.28770000  0.18420000  1
  O  O121  1  0.40560000  0.28770000  0.81580000  1
  O  O122  1  0.40560000  0.71230000  0.81580000  1
  O  O123  1  0.59440000  0.71230000  0.18420000  1
  O  O124  1  0.65700000  0.50000000  0.17730000  1
  O  O125  1  0.34300000  0.50000000  0.82270000  1
  O  O126  1  0.55910000  0.00000000  0.18160000  1
  O  O127  1  0.44090000  0.00000000  0.81840000  1
  O  O128  1  0.69560000  0.29850000  0.07040000  1
  O  O129  1  0.30440000  0.29850000  0.92960000  1
  O  O130  1  0.30440000  0.70150000  0.92960000  1
  O  O131  1  0.69560000  0.70150000  0.07040000  1
  O  O132  1  0.69750000  0.50000000  0.98930000  1
  O  O133  1  0.30250000  0.50000000  0.01070000  1
  O  O134  1  0.32560000  0.20470000  0.23210000  1
  O  O135  1  0.67440000  0.20470000  0.76790000  1
  O  O136  1  0.67440000  0.79530000  0.76790000  1
  O  O137  1  0.32560000  0.79530000  0.23210000  1
  O  O138  1  0.30430000  0.50000000  0.19900000  1
  O  O139  1  0.69570000  0.50000000  0.80100000  1
  O  O140  1  0.41490000  0.21420000  0.11790000  1
  O  O141  1  0.58510000  0.21420000  0.88210000  1
  O  O142  1  0.58510000  0.78580000  0.88210000  1
  O  O143  1  0.41490000  0.78580000  0.11790000  1
  O  O144  1  0.44940000  0.50000000  0.14400000  1
  O  O145  1  0.55060000  0.50000000  0.85600000  1
  O  O146  1  0.34980000  0.00000000  0.11400000  1
  O  O147  1  0.65020000  0.00000000  0.88600000  1
  O  O148  1  0.71050000  0.00000000  0.10320000  1
  O  O149  1  0.28950000  0.00000000  0.89680000  1
  O  O150  1  0.25210000  0.26190000  0.14950000  1
  O  O151  1  0.74790000  0.26190000  0.85050000  1
  O  O152  1  0.74790000  0.73810000  0.85050000  1
  O  O153  1  0.25210000  0.73810000  0.14950000  1
  O  O154  1  0.33540000  0.30110000  0.13500000  1
  O  O155  1  0.66460000  0.30110000  0.86500000  1
  O  O156  1  0.66460000  0.69890000  0.86500000  1
  O  O157  1  0.33540000  0.69890000  0.13500000  1
  O  O158  1  0.44460000  0.29690000  0.22350000  1
  O  O159  1  0.55540000  0.29690000  0.77650000  1
  O  O160  1  0.55540000  0.70310000  0.77650000  1
  O  O161  1  0.44460000  0.70310000  0.22350000  1
  O  O162  1  0.33930000  0.21580000  0.03450000  1
  O  O163  1  0.66070000  0.21580000  0.96550000  1
  O  O164  1  0.66070000  0.78420000  0.96550000  1
  O  O165  1  0.33930000  0.78420000  0.03450000  1
  O  O166  1  0.50420000  0.24990000  0.16290000  1
  O  O167  1  0.49580000  0.24990000  0.83710000  1
  O  O168  1  0.49580000  0.75010000  0.83710000  1
  O  O169  1  0.50420000  0.75010000  0.16290000  1
  O  O170  1  0.25000000  0.19760000  0.34310000  1
  O  O171  1  0.75000000  0.19760000  0.65690000  1
  O  O172  1  0.75000000  0.80240000  0.65690000  1
  O  O173  1  0.25000000  0.80240000  0.34310000  1
  O  O174  1  0.67450000  0.29780000  0.26090000  1
  O  O175  1  0.32550000  0.29780000  0.73910000  1
  O  O176  1  0.32550000  0.70220000  0.73910000  1
  O  O177  1  0.67450000  0.70220000  0.26090000  1
  O  O178  1  0.67050000  0.21840000  0.36220000  1
  O  O179  1  0.32950000  0.21840000  0.63780000  1
  O  O180  1  0.32950000  0.78160000  0.63780000  1
  O  O181  1  0.67050000  0.78160000  0.36220000  1
  O  O182  1  0.68710000  0.00000000  0.29390000  1
  O  O183  1  0.31290000  0.00000000  0.70610000  1
  O  O184  1  0.55720000  0.19580000  0.26400000  1
  O  O185  1  0.44280000  0.19580000  0.73600000  1
  O  O186  1  0.44280000  0.80420000  0.73600000  1
  O  O187  1  0.55720000  0.80420000  0.26400000  1
  O  O188  1  0.55650000  0.00000000  0.34670000  1
  O  O189  1  0.44350000  0.00000000  0.65330000  1
  O  O190  1  0.65160000  0.24000000  0.45940000  1
  O  O191  1  0.34840000  0.24000000  0.54060000  1
  O  O192  1  0.34840000  0.76000000  0.54060000  1
  O  O193  1  0.65160000  0.76000000  0.45940000  1
  O  O194  1  0.65490000  0.50000000  0.40080000  1
  O  O195  1  0.34510000  0.50000000  0.59920000  1
  O  O196  1  0.68960000  0.00000000  0.52390000  1
  O  O197  1  0.31040000  0.00000000  0.47610000  1
  O  O198  1  0.27280000  0.50000000  0.36000000  1
  O  O199  1  0.72720000  0.50000000  0.64000000  1
  O  O200  1  0.34790000  0.00000000  0.31500000  1
  O  O201  1  0.65210000  0.00000000  0.68500000  1
  O  O202  1  0.49760000  0.23930000  0.32450000  1
  O  O203  1  0.50240000  0.23930000  0.67550000  1
  O  O204  1  0.50240000  0.76070000  0.67550000  1
  O  O205  1  0.49760000  0.76070000  0.32450000  1
  O  O206  1  0.44730000  0.50000000  0.30560000  1
  O  O207  1  0.55270000  0.50000000  0.69440000  1
  O  O208  1  0.33160000  0.29880000  0.33510000  1
  O  O209  1  0.66840000  0.29880000  0.66490000  1
  O  O210  1  0.66840000  0.70120000  0.66490000  1
  O  O211  1  0.33160000  0.70120000  0.33510000  1
  O  O212  1  0.40720000  0.22180000  0.30520000  1
  O  O213  1  0.59280000  0.22180000  0.69480000  1
  O  O214  1  0.59280000  0.77820000  0.69480000  1
  O  O215  1  0.40720000  0.77820000  0.30520000  1
  O  O216  1  0.31340000  0.28460000  0.43340000  1
  O  O217  1  0.68660000  0.28460000  0.56660000  1
  O  O218  1  0.68660000  0.71540000  0.56660000  1
  O  O219  1  0.31340000  0.71540000  0.43340000  1
  O  O220  1  0.58640000  0.29490000  0.36760000  1
  O  O221  1  0.41360000  0.29490000  0.63240000  1
  O  O222  1  0.41360000  0.70510000  0.63240000  1
  O  O223  1  0.58640000  0.70510000  0.36760000  1
