# generated using pymatgen
data_Si
_symmetry_space_group_name_H-M   'P 1'
_cell_length_a   29.88600000
_cell_length_b   8.39000000
_cell_length_c   24.73100000
_cell_angle_alpha   90.00000000
_cell_angle_beta   105.04800000
_cell_angle_gamma   90.00000000
_symmetry_Int_Tables_number   1
_chemical_formula_structural   Si
_chemical_formula_sum   Si112
_cell_volume   5988.49313709
_cell_formula_units_Z   112
loop_
 _symmetry_equiv_pos_site_id
 _symmetry_equiv_pos_as_xyz
  1  'x, y, z'
loop_
 _atom_site_type_symbol
 _atom_site_label
 _atom_site_symmetry_multiplicity
 _atom_site_fract_x
 _atom_site_fract_y
 _atom_site_fract_z
 _atom_site_occupancy
  Si  Si0  1  0.86510000  0.31740000  0.10260000  1
  Si  Si1  1  0.13490000  0.31740000  0.89740000  1
  Si  Si2  1  0.13490000  0.68260000  0.89740000  1
  Si  Si3  1  0.86510000  0.68260000  0.10260000  1
  Si  Si4  1  0.79890000  0.18420000  0.99490000  1
  Si  Si5  1  0.20110000  0.18420000  0.00510000  1
  Si  Si6  1  0.20110000  0.81580000  0.00510000  1
  Si  Si7  1  0.79890000  0.81580000  0.99490000  1
  Si  Si8  1  0.14370000  0.31680000  0.40460000  1
  Si  Si9  1  0.85630000  0.31680000  0.59540000  1
  Si  Si10  1  0.85630000  0.68320000  0.59540000  1
  Si  Si11  1  0.14370000  0.68320000  0.40460000  1
  Si  Si12  1  0.79400000  0.31500000  0.37240000  1
  Si  Si13  1  0.20600000  0.31500000  0.62760000  1
  Si  Si14  1  0.20600000  0.68500000  0.62760000  1
  Si  Si15  1  0.79400000  0.68500000  0.37240000  1
  Si  Si16  1  0.64920000  0.31980000  0.19540000  1
  Si  Si17  1  0.35080000  0.31980000  0.80460000  1
  Si  Si18  1  0.35080000  0.68020000  0.80460000  1
  Si  Si19  1  0.64920000  0.68020000  0.19540000  1
  Si  Si20  1  0.70120000  0.31540000  0.00760000  1
  Si  Si21  1  0.29880000  0.31540000  0.99240000  1
  Si  Si22  1  0.29880000  0.68460000  0.99240000  1
  Si  Si23  1  0.70120000  0.68460000  0.00760000  1
  Si  Si24  1  0.35990000  0.18220000  0.10040000  1
  Si  Si25  1  0.64010000  0.18220000  0.89960000  1
  Si  Si26  1  0.64010000  0.81780000  0.89960000  1
  Si  Si27  1  0.35990000  0.81780000  0.10040000  1
  Si  Si28  1  0.69570000  0.18300000  0.31340000  1
  Si  Si29  1  0.30430000  0.18300000  0.68660000  1
  Si  Si30  1  0.30430000  0.81700000  0.68660000  1
  Si  Si31  1  0.69570000  0.81700000  0.31340000  1
  Si  Si32  1  0.64080000  0.31450000  0.39730000  1
  Si  Si33  1  0.35920000  0.31450000  0.60270000  1
  Si  Si34  1  0.35920000  0.68550000  0.60270000  1
  Si  Si35  1  0.64080000  0.68550000  0.39730000  1
  Si  Si36  1  0.35320000  0.18190000  0.29680000  1
  Si  Si37  1  0.64680000  0.18190000  0.70320000  1
  Si  Si38  1  0.64680000  0.81810000  0.70320000  1
  Si  Si39  1  0.35320000  0.81810000  0.29680000  1
  Si  Si40  1  0.29190000  0.31970000  0.36770000  1
  Si  Si41  1  0.70810000  0.31970000  0.63230000  1
  Si  Si42  1  0.70810000  0.68030000  0.63230000  1
  Si  Si43  1  0.29190000  0.68030000  0.36770000  1
  Si  Si44  1  0.05550000  0.31710000  0.21960000  1
  Si  Si45  1  0.94450000  0.31710000  0.78040000  1
  Si  Si46  1  0.94450000  0.68290000  0.78040000  1
  Si  Si47  1  0.05550000  0.68290000  0.21960000  1
  Si  Si48  1  0.95790000  0.18570000  0.17160000  1
  Si  Si49  1  0.04210000  0.18570000  0.82840000  1
  Si  Si50  1  0.04210000  0.81430000  0.82840000  1
  Si  Si51  1  0.95790000  0.81430000  0.17160000  1
  Si  Si52  1  0.19960000  0.31510000  0.12040000  1
  Si  Si53  1  0.80040000  0.31510000  0.87960000  1
  Si  Si54  1  0.80040000  0.68490000  0.87960000  1
  Si  Si55  1  0.19960000  0.68490000  0.12040000  1
  Si  Si56  1  0.14230000  0.18360000  0.19730000  1
  Si  Si57  1  0.85770000  0.18360000  0.80270000  1
  Si  Si58  1  0.85770000  0.81640000  0.80270000  1
  Si  Si59  1  0.14230000  0.81640000  0.19730000  1
  Si  Si60  1  0.19460000  0.18170000  0.32040000  1
  Si  Si61  1  0.80540000  0.18170000  0.67960000  1
  Si  Si62  1  0.80540000  0.81830000  0.67960000  1
  Si  Si63  1  0.19460000  0.81830000  0.32040000  1
  Si  Si64  1  0.95250000  0.31570000  0.28510000  1
  Si  Si65  1  0.04750000  0.31570000  0.71490000  1
  Si  Si66  1  0.04750000  0.68430000  0.71490000  1
  Si  Si67  1  0.95250000  0.68430000  0.28510000  1
  Si  Si68  1  0.86490000  0.18540000  0.31240000  1
  Si  Si69  1  0.13510000  0.18540000  0.68760000  1
  Si  Si70  1  0.13510000  0.81460000  0.68760000  1
  Si  Si71  1  0.86490000  0.81460000  0.31240000  1
  Si  Si72  1  0.78980000  0.18330000  0.48770000  1
  Si  Si73  1  0.21020000  0.18330000  0.51230000  1
  Si  Si74  1  0.21020000  0.81670000  0.51230000  1
  Si  Si75  1  0.78980000  0.81670000  0.48770000  1
  Si  Si76  1  0.05050000  0.18550000  0.33240000  1
  Si  Si77  1  0.94950000  0.18550000  0.66760000  1
  Si  Si78  1  0.94950000  0.81450000  0.66760000  1
  Si  Si79  1  0.05050000  0.81450000  0.33240000  1
  Si  Si80  1  0.70890000  0.18150000  0.12380000  1
  Si  Si81  1  0.29110000  0.18150000  0.87620000  1
  Si  Si82  1  0.29110000  0.81850000  0.87620000  1
  Si  Si83  1  0.70890000  0.81850000  0.12380000  1
  Si  Si84  1  0.30430000  0.31740000  0.17900000  1
  Si  Si85  1  0.69570000  0.31740000  0.82100000  1
  Si  Si86  1  0.69570000  0.68260000  0.82100000  1
  Si  Si87  1  0.30430000  0.68260000  0.17900000  1
  Si  Si88  1  0.30740000  0.18800000  0.48730000  1
  Si  Si89  1  0.69260000  0.18800000  0.51270000  1
  Si  Si90  1  0.69260000  0.81200000  0.51270000  1
  Si  Si91  1  0.30740000  0.81200000  0.48730000  1
  Si  Si92  1  0.81280000  0.18310000  0.18470000  1
  Si  Si93  1  0.18720000  0.18310000  0.81530000  1
  Si  Si94  1  0.18720000  0.81690000  0.81530000  1
  Si  Si95  1  0.81280000  0.81690000  0.18470000  1
  Si  Si96  1  0.45340000  0.31540000  0.16230000  1
  Si  Si97  1  0.54660000  0.31540000  0.83770000  1
  Si  Si98  1  0.54660000  0.68460000  0.83770000  1
  Si  Si99  1  0.45340000  0.68460000  0.16230000  1
  Si  Si100  1  0.55360000  0.18320000  0.19820000  1
  Si  Si101  1  0.44640000  0.18320000  0.80180000  1
  Si  Si102  1  0.44640000  0.81680000  0.80180000  1
  Si  Si103  1  0.55360000  0.81680000  0.19820000  1
  Si  Si104  1  0.44920000  0.31470000  0.28940000  1
  Si  Si105  1  0.55080000  0.31470000  0.71060000  1
  Si  Si106  1  0.55080000  0.68530000  0.71060000  1
  Si  Si107  1  0.44920000  0.68530000  0.28940000  1
  Si  Si108  1  0.54930000  0.18220000  0.32580000  1
  Si  Si109  1  0.45070000  0.18220000  0.67420000  1
  Si  Si110  1  0.45070000  0.81780000  0.67420000  1
  Si  Si111  1  0.54930000  0.81780000  0.32580000  1
