# generated using pymatgen
data_SiO4
_symmetry_space_group_name_H-M   'P 1'
_cell_length_a   29.88600000
_cell_length_b   8.39000000
_cell_length_c   24.73100000
_cell_angle_alpha   90.00000000
_cell_angle_beta   105.04800000
_cell_angle_gamma   90.00000000
_symmetry_Int_Tables_number   1
_chemical_formula_structural   SiO4
_chemical_formula_sum   'Si1 O4'
_cell_volume   5988.49313709
_cell_formula_units_Z   1
loop_
 _symmetry_equiv_pos_site_id
 _symmetry_equiv_pos_as_xyz
  1  'x, y, z'
loop_
 _atom_site_type_symbol
 _atom_site_label
 _atom_site_symmetry_multiplicity
 _atom_site_fract_x
 _atom_site_fract_y
 _atom_site_fract_z
 _atom_site_occupancy
  Si  Si0  1  0.14230000  0.81640000  0.19730000  1
  O  O1  1  0.12720000  1.00000000  0.19950000  1
  O  O2  1  0.16460000  0.79060000  0.14530000  1
  O  O3  1  0.09720000  0.70520000  0.19000000  1
  O  O4  1  0.17930000  0.77070000  0.25510000  1
