# generated using pymatgen
data_SiO4
_symmetry_space_group_name_H-M   'P 1'
_cell_length_a   29.88600000
_cell_length_b   8.39000000
_cell_length_c   24.73100000
_cell_angle_alpha   90.00000000
_cell_angle_beta   105.04800000
_cell_angle_gamma   90.00000000
_symmetry_Int_Tables_number   1
_chemical_formula_structural   SiO4
_chemical_formula_sum   'Si1 O4'
_cell_volume   5988.49313709
_cell_formula_units_Z   1
loop_
 _symmetry_equiv_pos_site_id
 _symmetry_equiv_pos_as_xyz
  1  'x, y, z'
loop_
 _atom_site_type_symbol
 _atom_site_label
 _atom_site_symmetry_multiplicity
 _atom_site_fract_x
 _atom_site_fract_y
 _atom_site_fract_z
 _atom_site_occupancy
  Si  Si0  1  0.80040000  0.31510000  0.87960000  1
  O  O1  1  0.80710000  0.50000000  0.86620000  1
  O  O2  1  0.83540000  0.20940000  0.85470000  1
  O  O3  1  0.81140000  0.28900000  0.94620000  1
  O  O4  1  0.74790000  0.26190000  0.85050000  1
