# generated using pymatgen
data_O2
_symmetry_space_group_name_H-M   'P 1'
_cell_length_a   7.55700000
_cell_length_b   18.71500000
_cell_length_c   14.09900000
_cell_angle_alpha   90.00000000
_cell_angle_beta   90.00000000
_cell_angle_gamma   90.00000000
_symmetry_Int_Tables_number   1
_chemical_formula_structural   O2
_chemical_formula_sum   O72
_cell_volume   1994.01106625
_cell_formula_units_Z   36
loop_
 _symmetry_equiv_pos_site_id
 _symmetry_equiv_pos_as_xyz
  1  'x, y, z'
loop_
 _atom_site_type_symbol
 _atom_site_label
 _atom_site_symmetry_multiplicity
 _atom_site_fract_x
 _atom_site_fract_y
 _atom_site_fract_z
 _atom_site_occupancy
  O  O0  1  0.25000000  0.25000000  0.00000000  1
  O  O1  1  0.75000000  0.75000000  0.00000000  1
  O  O2  1  0.75000000  0.25000000  0.00000000  1
  O  O3  1  0.25000000  0.75000000  0.00000000  1
  O  O4  1  0.25000000  0.75000000  0.50000000  1
  O  O5  1  0.75000000  0.25000000  0.50000000  1
  O  O6  1  0.75000000  0.75000000  0.50000000  1
  O  O7  1  0.25000000  0.25000000  0.50000000  1
  O  O8  1  0.17440000  0.11570000  0.00160000  1
  O  O9  1  0.67440000  0.61570000  0.00160000  1
  O  O10  1  0.82560000  0.11570000  0.00160000  1
  O  O11  1  0.32560000  0.61570000  0.00160000  1
  O  O12  1  0.17440000  0.88430000  0.50160000  1
  O  O13  1  0.67440000  0.38430000  0.50160000  1
  O  O14  1  0.82560000  0.88430000  0.50160000  1
  O  O15  1  0.32560000  0.38430000  0.50160000  1
  O  O16  1  0.82560000  0.88430000  0.99840000  1
  O  O17  1  0.32560000  0.38430000  0.99840000  1
  O  O18  1  0.17440000  0.88430000  0.99840000  1
  O  O19  1  0.67440000  0.38430000  0.99840000  1
  O  O20  1  0.82560000  0.11570000  0.49840000  1
  O  O21  1  0.32560000  0.61570000  0.49840000  1
  O  O22  1  0.17440000  0.11570000  0.49840000  1
  O  O23  1  0.67440000  0.61570000  0.49840000  1
  O  O24  1  0.50000000  0.15550000  0.04280000  1
  O  O25  1  0.00000000  0.65550000  0.04280000  1
  O  O26  1  0.50000000  0.84450000  0.54280000  1
  O  O27  1  0.00000000  0.34450000  0.54280000  1
  O  O28  1  0.50000000  0.84450000  0.95720000  1
  O  O29  1  0.00000000  0.34450000  0.95720000  1
  O  O30  1  0.50000000  0.15550000  0.45720000  1
  O  O31  1  0.00000000  0.65550000  0.45720000  1
  O  O32  1  0.23900000  0.19030000  0.16000000  1
  O  O33  1  0.73900000  0.69030000  0.16000000  1
  O  O34  1  0.76100000  0.19030000  0.16000000  1
  O  O35  1  0.26100000  0.69030000  0.16000000  1
  O  O36  1  0.23900000  0.80970000  0.66000000  1
  O  O37  1  0.73900000  0.30970000  0.66000000  1
  O  O38  1  0.76100000  0.80970000  0.66000000  1
  O  O39  1  0.26100000  0.30970000  0.66000000  1
  O  O40  1  0.76100000  0.80970000  0.84000000  1
  O  O41  1  0.26100000  0.30970000  0.84000000  1
  O  O42  1  0.23900000  0.80970000  0.84000000  1
  O  O43  1  0.73900000  0.30970000  0.84000000  1
  O  O44  1  0.76100000  0.19030000  0.34000000  1
  O  O45  1  0.26100000  0.69030000  0.34000000  1
  O  O46  1  0.23900000  0.19030000  0.34000000  1
  O  O47  1  0.73900000  0.69030000  0.34000000  1
  O  O48  1  0.32770000  0.31180000  0.25000000  1
  O  O49  1  0.82770000  0.81180000  0.25000000  1
  O  O50  1  0.67230000  0.31180000  0.25000000  1
  O  O51  1  0.17230000  0.81180000  0.25000000  1
  O  O52  1  0.32770000  0.68820000  0.75000000  1
  O  O53  1  0.82770000  0.18820000  0.75000000  1
  O  O54  1  0.67230000  0.68820000  0.75000000  1
  O  O55  1  0.17230000  0.18820000  0.75000000  1
  O  O56  1  0.00000000  0.26540000  0.25000000  1
  O  O57  1  0.50000000  0.76540000  0.25000000  1
  O  O58  1  0.00000000  0.73460000  0.75000000  1
  O  O59  1  0.50000000  0.23460000  0.75000000  1
  O  O60  1  0.00000000  0.00000000  0.50000000  1
  O  O61  1  0.50000000  0.50000000  0.50000000  1
  O  O62  1  0.00000000  0.00000000  0.00000000  1
  O  O63  1  0.50000000  0.50000000  0.00000000  1
  O  O64  1  0.00000000  0.08750000  0.65650000  1
  O  O65  1  0.50000000  0.58750000  0.65650000  1
  O  O66  1  0.00000000  0.91250000  0.15650000  1
  O  O67  1  0.50000000  0.41250000  0.15650000  1
  O  O68  1  0.00000000  0.91250000  0.34350000  1
  O  O69  1  0.50000000  0.41250000  0.34350000  1
  O  O70  1  0.00000000  0.08750000  0.84350000  1
  O  O71  1  0.50000000  0.58750000  0.84350000  1
