# generated using pymatgen
data_Si
_symmetry_space_group_name_H-M   'P 1'
_cell_length_a   7.55700000
_cell_length_b   18.71500000
_cell_length_c   14.09900000
_cell_angle_alpha   90.00000000
_cell_angle_beta   90.00000000
_cell_angle_gamma   90.00000000
_symmetry_Int_Tables_number   1
_chemical_formula_structural   Si
_chemical_formula_sum   Si36
_cell_volume   1994.01106625
_cell_formula_units_Z   36
loop_
 _symmetry_equiv_pos_site_id
 _symmetry_equiv_pos_as_xyz
  1  'x, y, z'
loop_
 _atom_site_type_symbol
 _atom_site_label
 _atom_site_symmetry_multiplicity
 _atom_site_fract_x
 _atom_site_fract_y
 _atom_site_fract_z
 _atom_site_occupancy
  Si  Si0  1  0.29410000  0.17580000  0.05160000  1
  Si  Si1  1  0.79410000  0.67580000  0.05160000  1
  Si  Si2  1  0.70590000  0.17580000  0.05160000  1
  Si  Si3  1  0.20590000  0.67580000  0.05160000  1
  Si  Si4  1  0.29410000  0.82420000  0.55160000  1
  Si  Si5  1  0.79410000  0.32420000  0.55160000  1
  Si  Si6  1  0.70590000  0.82420000  0.55160000  1
  Si  Si7  1  0.20590000  0.32420000  0.55160000  1
  Si  Si8  1  0.70590000  0.82420000  0.94840000  1
  Si  Si9  1  0.20590000  0.32420000  0.94840000  1
  Si  Si10  1  0.29410000  0.82420000  0.94840000  1
  Si  Si11  1  0.79410000  0.32420000  0.94840000  1
  Si  Si12  1  0.70590000  0.17580000  0.44840000  1
  Si  Si13  1  0.20590000  0.67580000  0.44840000  1
  Si  Si14  1  0.29410000  0.17580000  0.44840000  1
  Si  Si15  1  0.79410000  0.67580000  0.44840000  1
  Si  Si16  1  0.20480000  0.24150000  0.25000000  1
  Si  Si17  1  0.70480000  0.74150000  0.25000000  1
  Si  Si18  1  0.79520000  0.24150000  0.25000000  1
  Si  Si19  1  0.29520000  0.74150000  0.25000000  1
  Si  Si20  1  0.20480000  0.75850000  0.75000000  1
  Si  Si21  1  0.70480000  0.25850000  0.75000000  1
  Si  Si22  1  0.79520000  0.75850000  0.75000000  1
  Si  Si23  1  0.29520000  0.25850000  0.75000000  1
  Si  Si24  1  0.00000000  0.07950000  0.54290000  1
  Si  Si25  1  0.50000000  0.57950000  0.54290000  1
  Si  Si26  1  0.00000000  0.92050000  0.04290000  1
  Si  Si27  1  0.50000000  0.42050000  0.04290000  1
  Si  Si28  1  0.00000000  0.92050000  0.45710000  1
  Si  Si29  1  0.50000000  0.42050000  0.45710000  1
  Si  Si30  1  0.00000000  0.07950000  0.95710000  1
  Si  Si31  1  0.50000000  0.57950000  0.95710000  1
  Si  Si32  1  0.00000000  0.86260000  0.25000000  1
  Si  Si33  1  0.50000000  0.36260000  0.25000000  1
  Si  Si34  1  0.00000000  0.13740000  0.75000000  1
  Si  Si35  1  0.50000000  0.63740000  0.75000000  1
