# generated using pymatgen
data_Si
_symmetry_space_group_name_H-M   'P 1'
_cell_length_a   25.11000000
_cell_length_b   12.73300000
_cell_length_c   11.51000000
_cell_angle_alpha   90.00000000
_cell_angle_beta   90.00000000
_cell_angle_gamma   90.00000000
_symmetry_Int_Tables_number   1
_chemical_formula_structural   Si
_chemical_formula_sum   Si60
_cell_volume   3680.04200130
_cell_formula_units_Z   60
loop_
 _symmetry_equiv_pos_site_id
 _symmetry_equiv_pos_as_xyz
  1  'x, y, z'
loop_
 _atom_site_type_symbol
 _atom_site_label
 _atom_site_symmetry_multiplicity
 _atom_site_fract_x
 _atom_site_fract_y
 _atom_site_fract_z
 _atom_site_occupancy
  Si  Si0  1  0.06040000  0.12220000  0.36680000  1
  Si  Si1  1  0.93960000  0.87780000  0.36680000  1
  Si  Si2  1  0.93960000  0.12220000  0.63320000  1
  Si  Si3  1  0.06040000  0.87780000  0.63320000  1
  Si  Si4  1  0.93960000  0.87780000  0.63320000  1
  Si  Si5  1  0.06040000  0.12220000  0.63320000  1
  Si  Si6  1  0.06040000  0.87780000  0.36680000  1
  Si  Si7  1  0.93960000  0.12220000  0.36680000  1
  Si  Si8  1  0.34380000  0.37850000  0.36770000  1
  Si  Si9  1  0.65620000  0.62150000  0.36770000  1
  Si  Si10  1  0.65620000  0.37850000  0.63230000  1
  Si  Si11  1  0.34380000  0.62150000  0.63230000  1
  Si  Si12  1  0.65620000  0.62150000  0.63230000  1
  Si  Si13  1  0.34380000  0.37850000  0.63230000  1
  Si  Si14  1  0.34380000  0.62150000  0.36770000  1
  Si  Si15  1  0.65620000  0.37850000  0.36770000  1
  Si  Si16  1  0.22130000  0.37990000  0.36730000  1
  Si  Si17  1  0.77870000  0.62010000  0.36730000  1
  Si  Si18  1  0.77870000  0.37990000  0.63270000  1
  Si  Si19  1  0.22130000  0.62010000  0.63270000  1
  Si  Si20  1  0.77870000  0.62010000  0.63270000  1
  Si  Si21  1  0.22130000  0.37990000  0.63270000  1
  Si  Si22  1  0.22130000  0.62010000  0.36730000  1
  Si  Si23  1  0.77870000  0.37990000  0.36730000  1
  Si  Si24  1  0.38660000  0.19220000  0.22380000  1
  Si  Si25  1  0.61340000  0.80780000  0.22380000  1
  Si  Si26  1  0.61340000  0.19220000  0.77620000  1
  Si  Si27  1  0.38660000  0.80780000  0.77620000  1
  Si  Si28  1  0.61340000  0.80780000  0.77620000  1
  Si  Si29  1  0.38660000  0.19220000  0.77620000  1
  Si  Si30  1  0.38660000  0.80780000  0.22380000  1
  Si  Si31  1  0.61340000  0.19220000  0.22380000  1
  Si  Si32  1  0.16180000  0.19360000  0.25070000  1
  Si  Si33  1  0.83820000  0.80640000  0.25070000  1
  Si  Si34  1  0.83820000  0.19360000  0.74930000  1
  Si  Si35  1  0.16180000  0.80640000  0.74930000  1
  Si  Si36  1  0.83820000  0.80640000  0.74930000  1
  Si  Si37  1  0.16180000  0.19360000  0.74930000  1
  Si  Si38  1  0.16180000  0.80640000  0.25070000  1
  Si  Si39  1  0.83820000  0.19360000  0.25070000  1
  Si  Si40  1  0.19590000  0.12250000  0.00000000  1
  Si  Si41  1  0.80410000  0.87750000  0.00000000  1
  Si  Si42  1  0.80410000  0.12250000  0.00000000  1
  Si  Si43  1  0.19590000  0.87750000  0.00000000  1
  Si  Si44  1  0.32340000  0.12250000  0.00000000  1
  Si  Si45  1  0.67660000  0.87750000  0.00000000  1
  Si  Si46  1  0.67660000  0.12250000  0.00000000  1
  Si  Si47  1  0.32340000  0.87750000  0.00000000  1
  Si  Si48  1  0.34250000  0.00000000  0.36080000  1
  Si  Si49  1  0.65750000  0.00000000  0.36080000  1
  Si  Si50  1  0.65750000  0.00000000  0.63920000  1
  Si  Si51  1  0.34250000  0.00000000  0.63920000  1
  Si  Si52  1  0.22470000  0.00000000  0.36090000  1
  Si  Si53  1  0.77530000  0.00000000  0.36090000  1
  Si  Si54  1  0.77530000  0.00000000  0.63910000  1
  Si  Si55  1  0.22470000  0.00000000  0.63910000  1
  Si  Si56  1  0.50000000  0.11900000  0.13960000  1
  Si  Si57  1  0.50000000  0.88100000  0.13960000  1
  Si  Si58  1  0.50000000  0.11900000  0.86040000  1
  Si  Si59  1  0.50000000  0.88100000  0.86040000  1
