# generated using pymatgen
data_O2
_symmetry_space_group_name_H-M   'P 1'
_cell_length_a   25.11000000
_cell_length_b   12.73300000
_cell_length_c   11.51000000
_cell_angle_alpha   90.00000000
_cell_angle_beta   90.00000000
_cell_angle_gamma   90.00000000
_symmetry_Int_Tables_number   1
_chemical_formula_structural   O2
_chemical_formula_sum   O120
_cell_volume   3680.04200130
_cell_formula_units_Z   60
loop_
 _symmetry_equiv_pos_site_id
 _symmetry_equiv_pos_as_xyz
  1  'x, y, z'
loop_
 _atom_site_type_symbol
 _atom_site_label
 _atom_site_symmetry_multiplicity
 _atom_site_fract_x
 _atom_site_fract_y
 _atom_site_fract_z
 _atom_site_occupancy
  O  O0  1  0.00000000  0.16220000  0.35150000  1
  O  O1  1  0.00000000  0.83780000  0.35150000  1
  O  O2  1  0.00000000  0.16220000  0.64850000  1
  O  O3  1  0.00000000  0.83780000  0.64850000  1
  O  O4  1  0.07860000  0.13700000  0.50000000  1
  O  O5  1  0.92140000  0.86300000  0.50000000  1
  O  O6  1  0.92140000  0.13700000  0.50000000  1
  O  O7  1  0.07860000  0.86300000  0.50000000  1
  O  O8  1  0.09940000  0.18790000  0.28260000  1
  O  O9  1  0.90060000  0.81210000  0.28260000  1
  O  O10  1  0.90060000  0.18790000  0.71740000  1
  O  O11  1  0.09940000  0.81210000  0.71740000  1
  O  O12  1  0.90060000  0.81210000  0.71740000  1
  O  O13  1  0.09940000  0.18790000  0.71740000  1
  O  O14  1  0.09940000  0.81210000  0.28260000  1
  O  O15  1  0.90060000  0.18790000  0.28260000  1
  O  O16  1  0.06380000  0.00000000  0.33180000  1
  O  O17  1  0.93620000  0.00000000  0.33180000  1
  O  O18  1  0.93620000  0.00000000  0.66820000  1
  O  O19  1  0.06380000  0.00000000  0.66820000  1
  O  O20  1  0.37870000  0.30630000  0.28170000  1
  O  O21  1  0.62130000  0.69370000  0.28170000  1
  O  O22  1  0.62130000  0.30630000  0.71830000  1
  O  O23  1  0.37870000  0.69370000  0.71830000  1
  O  O24  1  0.62130000  0.69370000  0.71830000  1
  O  O25  1  0.37870000  0.30630000  0.71830000  1
  O  O26  1  0.37870000  0.69370000  0.28170000  1
  O  O27  1  0.62130000  0.30630000  0.28170000  1
  O  O28  1  0.28250000  0.34270000  0.35820000  1
  O  O29  1  0.71750000  0.65730000  0.35820000  1
  O  O30  1  0.71750000  0.34270000  0.64180000  1
  O  O31  1  0.28250000  0.65730000  0.64180000  1
  O  O32  1  0.71750000  0.65730000  0.64180000  1
  O  O33  1  0.28250000  0.34270000  0.64180000  1
  O  O34  1  0.28250000  0.65730000  0.35820000  1
  O  O35  1  0.71750000  0.34270000  0.35820000  1
  O  O36  1  0.34930000  0.50000000  0.33070000  1
  O  O37  1  0.65070000  0.50000000  0.33070000  1
  O  O38  1  0.65070000  0.50000000  0.66930000  1
  O  O39  1  0.34930000  0.50000000  0.66930000  1
  O  O40  1  0.36350000  0.36400000  0.50000000  1
  O  O41  1  0.63650000  0.63600000  0.50000000  1
  O  O42  1  0.63650000  0.36400000  0.50000000  1
  O  O43  1  0.36350000  0.63600000  0.50000000  1
  O  O44  1  0.18450000  0.30740000  0.28600000  1
  O  O45  1  0.81550000  0.69260000  0.28600000  1
  O  O46  1  0.81550000  0.30740000  0.71400000  1
  O  O47  1  0.18450000  0.69260000  0.71400000  1
  O  O48  1  0.81550000  0.69260000  0.71400000  1
  O  O49  1  0.18450000  0.30740000  0.71400000  1
  O  O50  1  0.18450000  0.69260000  0.28600000  1
  O  O51  1  0.81550000  0.30740000  0.28600000  1
  O  O52  1  0.20160000  0.37090000  0.50000000  1
  O  O53  1  0.79840000  0.62910000  0.50000000  1
  O  O54  1  0.79840000  0.37090000  0.50000000  1
  O  O55  1  0.20160000  0.62910000  0.50000000  1
  O  O56  1  0.21660000  0.50000000  0.32480000  1
  O  O57  1  0.78340000  0.50000000  0.32480000  1
  O  O58  1  0.78340000  0.50000000  0.67520000  1
  O  O59  1  0.21660000  0.50000000  0.67520000  1
  O  O60  1  0.37410000  0.10340000  0.31950000  1
  O  O61  1  0.62590000  0.89660000  0.31950000  1
  O  O62  1  0.62590000  0.10340000  0.68050000  1
  O  O63  1  0.37410000  0.89660000  0.68050000  1
  O  O64  1  0.62590000  0.89660000  0.68050000  1
  O  O65  1  0.37410000  0.10340000  0.68050000  1
  O  O66  1  0.37410000  0.89660000  0.31950000  1
  O  O67  1  0.62590000  0.10340000  0.31950000  1
  O  O68  1  0.34760000  0.17810000  0.11410000  1
  O  O69  1  0.65240000  0.82190000  0.11410000  1
  O  O70  1  0.65240000  0.17810000  0.88590000  1
  O  O71  1  0.34760000  0.82190000  0.88590000  1
  O  O72  1  0.65240000  0.82190000  0.88590000  1
  O  O73  1  0.34760000  0.17810000  0.88590000  1
  O  O74  1  0.34760000  0.82190000  0.11410000  1
  O  O75  1  0.65240000  0.17810000  0.11410000  1
  O  O76  1  0.44770000  0.18030000  0.18330000  1
  O  O77  1  0.55230000  0.81970000  0.18330000  1
  O  O78  1  0.55230000  0.18030000  0.81670000  1
  O  O79  1  0.44770000  0.81970000  0.81670000  1
  O  O80  1  0.55230000  0.81970000  0.81670000  1
  O  O81  1  0.44770000  0.18030000  0.81670000  1
  O  O82  1  0.44770000  0.81970000  0.18330000  1
  O  O83  1  0.55230000  0.18030000  0.18330000  1
  O  O84  1  0.17050000  0.17670000  0.11350000  1
  O  O85  1  0.82950000  0.82330000  0.11350000  1
  O  O86  1  0.82950000  0.17670000  0.88650000  1
  O  O87  1  0.17050000  0.82330000  0.88650000  1
  O  O88  1  0.82950000  0.82330000  0.88650000  1
  O  O89  1  0.17050000  0.17670000  0.88650000  1
  O  O90  1  0.17050000  0.82330000  0.11350000  1
  O  O91  1  0.82950000  0.17670000  0.11350000  1
  O  O92  1  0.19300000  0.10360000  0.32120000  1
  O  O93  1  0.80700000  0.89640000  0.32120000  1
  O  O94  1  0.80700000  0.10360000  0.67880000  1
  O  O95  1  0.19300000  0.89640000  0.67880000  1
  O  O96  1  0.80700000  0.89640000  0.67880000  1
  O  O97  1  0.19300000  0.10360000  0.67880000  1
  O  O98  1  0.19300000  0.89640000  0.32120000  1
  O  O99  1  0.80700000  0.10360000  0.32120000  1
  O  O100  1  0.18020000  0.00000000  0.00000000  1
  O  O101  1  0.81980000  0.00000000  0.00000000  1
  O  O102  1  0.25960000  0.13530000  0.00000000  1
  O  O103  1  0.74040000  0.86470000  0.00000000  1
  O  O104  1  0.74040000  0.13530000  0.00000000  1
  O  O105  1  0.25960000  0.86470000  0.00000000  1
  O  O106  1  0.33910000  0.00000000  0.00000000  1
  O  O107  1  0.66090000  0.00000000  0.00000000  1
  O  O108  1  0.33740000  0.00000000  0.50000000  1
  O  O109  1  0.66260000  0.00000000  0.50000000  1
  O  O110  1  0.28360000  0.00000000  0.30530000  1
  O  O111  1  0.71640000  0.00000000  0.30530000  1
  O  O112  1  0.71640000  0.00000000  0.69470000  1
  O  O113  1  0.28360000  0.00000000  0.69470000  1
  O  O114  1  0.23040000  0.00000000  0.50000000  1
  O  O115  1  0.76960000  0.00000000  0.50000000  1
  O  O116  1  0.50000000  0.11680000  0.00000000  1
  O  O117  1  0.50000000  0.88320000  0.00000000  1
  O  O118  1  0.50000000  0.00000000  0.18720000  1
  O  O119  1  0.50000000  0.00000000  0.81280000  1
