# generated using pymatgen
data_O2
_symmetry_space_group_name_H-M   'P 1'
_cell_length_a   7.07500000
_cell_length_b   7.07500000
_cell_length_c   9.02300000
_cell_angle_alpha   90.00000000
_cell_angle_beta   90.00000000
_cell_angle_gamma   90.00000000
_symmetry_Int_Tables_number   1
_chemical_formula_structural   O2
_chemical_formula_sum   O16
_cell_volume   451.65190437
_cell_formula_units_Z   8
loop_
 _symmetry_equiv_pos_site_id
 _symmetry_equiv_pos_as_xyz
  1  'x, y, z'
loop_
 _atom_site_type_symbol
 _atom_site_label
 _atom_site_symmetry_multiplicity
 _atom_site_fract_x
 _atom_site_fract_y
 _atom_site_fract_z
 _atom_site_occupancy
  O  O0  1  0.68570000  0.31430000  0.25000000  1
  O  O1  1  0.68570000  0.68570000  0.75000000  1
  O  O2  1  0.31430000  0.68570000  0.25000000  1
  O  O3  1  0.31430000  0.31430000  0.75000000  1
  O  O4  1  0.31430000  0.31430000  0.25000000  1
  O  O5  1  0.31430000  0.68570000  0.75000000  1
  O  O6  1  0.68570000  0.68570000  0.25000000  1
  O  O7  1  0.68570000  0.31430000  0.75000000  1
  O  O8  1  0.72580000  0.50000000  0.00000000  1
  O  O9  1  0.50000000  0.72580000  0.50000000  1
  O  O10  1  0.27420000  0.50000000  0.00000000  1
  O  O11  1  0.50000000  0.27420000  0.50000000  1
  O  O12  1  0.00000000  0.50000000  0.19760000  1
  O  O13  1  0.50000000  0.00000000  0.69760000  1
  O  O14  1  0.00000000  0.50000000  0.80240000  1
  O  O15  1  0.50000000  0.00000000  0.30240000  1
