# generated using pymatgen
data_SiO4
_symmetry_space_group_name_H-M   'P 1'
_cell_length_a   8.16500000
_cell_length_b   9.20000000
_cell_length_c   17.29400000
_cell_angle_alpha   90.00000000
_cell_angle_beta   90.00000000
_cell_angle_gamma   90.00000000
_symmetry_Int_Tables_number   1
_chemical_formula_structural   SiO4
_chemical_formula_sum   'Si1 O4'
_cell_volume   1299.09069200
_cell_formula_units_Z   1
loop_
 _symmetry_equiv_pos_site_id
 _symmetry_equiv_pos_as_xyz
  1  'x, y, z'
loop_
 _atom_site_type_symbol
 _atom_site_label
 _atom_site_symmetry_multiplicity
 _atom_site_fract_x
 _atom_site_fract_y
 _atom_site_fract_z
 _atom_site_occupancy
  Si  Si0  1  0.43740000  0.91190000  0.97190000  1
  O  O1  1  0.54680000  0.98340000  1.03930000  1
  O  O2  1  0.45220000  1.00990000  0.89500000  1
  O  O3  1  0.25000000  0.90550000  1.00000000  1
  O  O4  1  0.50000000  0.75000000  0.95300000  1
