# generated using pymatgen
data_O2
_symmetry_space_group_name_H-M   'P 1'
_cell_length_a   8.16500000
_cell_length_b   9.20000000
_cell_length_c   17.29400000
_cell_angle_alpha   90.00000000
_cell_angle_beta   90.00000000
_cell_angle_gamma   90.00000000
_symmetry_Int_Tables_number   1
_chemical_formula_structural   O2
_chemical_formula_sum   O48
_cell_volume   1299.09069200
_cell_formula_units_Z   24
loop_
 _symmetry_equiv_pos_site_id
 _symmetry_equiv_pos_as_xyz
  1  'x, y, z'
loop_
 _atom_site_type_symbol
 _atom_site_label
 _atom_site_symmetry_multiplicity
 _atom_site_fract_x
 _atom_site_fract_y
 _atom_site_fract_z
 _atom_site_occupancy
  O  O0  1  0.75000000  0.19140000  0.00000000  1
  O  O1  1  0.25000000  0.69140000  0.50000000  1
  O  O2  1  0.75000000  0.80860000  0.50000000  1
  O  O3  1  0.25000000  0.30860000  0.00000000  1
  O  O4  1  0.54680000  0.98340000  0.03930000  1
  O  O5  1  0.04680000  0.48340000  0.53930000  1
  O  O6  1  0.95320000  0.01660000  0.53930000  1
  O  O7  1  0.45320000  0.51660000  0.03930000  1
  O  O8  1  0.45320000  0.48340000  0.46070000  1
  O  O9  1  0.95320000  0.98340000  0.96070000  1
  O  O10  1  0.04680000  0.51660000  0.96070000  1
  O  O11  1  0.54680000  0.01660000  0.46070000  1
  O  O12  1  0.74790000  0.09230000  0.14190000  1
  O  O13  1  0.24790000  0.59230000  0.64190000  1
  O  O14  1  0.75210000  0.90770000  0.64190000  1
  O  O15  1  0.25210000  0.40770000  0.14190000  1
  O  O16  1  0.25210000  0.59230000  0.35810000  1
  O  O17  1  0.75210000  0.09230000  0.85810000  1
  O  O18  1  0.24790000  0.40770000  0.85810000  1
  O  O19  1  0.74790000  0.90770000  0.35810000  1
  O  O20  1  0.50000000  0.25000000  0.09160000  1
  O  O21  1  0.00000000  0.75000000  0.59160000  1
  O  O22  1  0.50000000  0.75000000  0.40840000  1
  O  O23  1  0.00000000  0.25000000  0.90840000  1
  O  O24  1  0.04780000  0.00990000  0.10500000  1
  O  O25  1  0.54780000  0.50990000  0.60500000  1
  O  O26  1  0.45220000  0.99010000  0.60500000  1
  O  O27  1  0.95220000  0.49010000  0.10500000  1
  O  O28  1  0.95220000  0.50990000  0.39500000  1
  O  O29  1  0.45220000  0.00990000  0.89500000  1
  O  O30  1  0.54780000  0.49010000  0.89500000  1
  O  O31  1  0.04780000  0.99010000  0.39500000  1
  O  O32  1  0.25000000  0.90550000  0.00000000  1
  O  O33  1  0.75000000  0.40550000  0.50000000  1
  O  O34  1  0.25000000  0.09450000  0.50000000  1
  O  O35  1  0.75000000  0.59450000  0.00000000  1
  O  O36  1  0.00000000  0.75000000  0.04700000  1
  O  O37  1  0.50000000  0.25000000  0.54700000  1
  O  O38  1  0.00000000  0.25000000  0.45300000  1
  O  O39  1  0.50000000  0.75000000  0.95300000  1
  O  O40  1  0.00000000  0.75000000  0.31600000  1
  O  O41  1  0.50000000  0.25000000  0.81600000  1
  O  O42  1  0.00000000  0.25000000  0.18400000  1
  O  O43  1  0.50000000  0.75000000  0.68400000  1
  O  O44  1  0.94980000  0.00000000  0.25000000  1
  O  O45  1  0.44980000  0.50000000  0.75000000  1
  O  O46  1  0.55020000  0.00000000  0.75000000  1
  O  O47  1  0.05020000  0.50000000  0.25000000  1
