# generated using pymatgen
data_O2
_symmetry_space_group_name_H-M   'P 1'
_cell_length_a   14.02000000
_cell_length_b   13.46600000
_cell_length_c   10.20200000
_cell_angle_alpha   90.00000000
_cell_angle_beta   107.23900000
_cell_angle_gamma   90.00000000
_symmetry_Int_Tables_number   1
_chemical_formula_structural   O2
_chemical_formula_sum   O64
_cell_volume   1839.54436066
_cell_formula_units_Z   32
loop_
 _symmetry_equiv_pos_site_id
 _symmetry_equiv_pos_as_xyz
  1  'x, y, z'
loop_
 _atom_site_type_symbol
 _atom_site_label
 _atom_site_symmetry_multiplicity
 _atom_site_fract_x
 _atom_site_fract_y
 _atom_site_fract_z
 _atom_site_occupancy
  O  O0  1  0.81830000  0.84190000  0.32620000  1
  O  O1  1  0.31830000  0.34190000  0.32620000  1
  O  O2  1  0.18170000  0.84190000  0.67380000  1
  O  O3  1  0.68170000  0.34190000  0.67380000  1
  O  O4  1  0.18170000  0.15810000  0.67380000  1
  O  O5  1  0.68170000  0.65810000  0.67380000  1
  O  O6  1  0.81830000  0.15810000  0.32620000  1
  O  O7  1  0.31830000  0.65810000  0.32620000  1
  O  O8  1  0.76440000  0.68240000  0.17550000  1
  O  O9  1  0.26440000  0.18240000  0.17550000  1
  O  O10  1  0.23560000  0.68240000  0.82450000  1
  O  O11  1  0.73560000  0.18240000  0.82450000  1
  O  O12  1  0.23560000  0.31760000  0.82450000  1
  O  O13  1  0.73560000  0.81760000  0.82450000  1
  O  O14  1  0.76440000  0.31760000  0.17550000  1
  O  O15  1  0.26440000  0.81760000  0.17550000  1
  O  O16  1  0.62570000  0.78860000  0.23250000  1
  O  O17  1  0.12570000  0.28860000  0.23250000  1
  O  O18  1  0.37430000  0.78860000  0.76750000  1
  O  O19  1  0.87430000  0.28860000  0.76750000  1
  O  O20  1  0.37430000  0.21140000  0.76750000  1
  O  O21  1  0.87430000  0.71140000  0.76750000  1
  O  O22  1  0.62570000  0.21140000  0.23250000  1
  O  O23  1  0.12570000  0.71140000  0.23250000  1
  O  O24  1  0.71890000  0.86050000  0.06640000  1
  O  O25  1  0.21890000  0.36050000  0.06640000  1
  O  O26  1  0.28110000  0.86050000  0.93360000  1
  O  O27  1  0.78110000  0.36050000  0.93360000  1
  O  O28  1  0.28110000  0.13950000  0.93360000  1
  O  O29  1  0.78110000  0.63950000  0.93360000  1
  O  O30  1  0.71890000  0.13950000  0.06640000  1
  O  O31  1  0.21890000  0.63950000  0.06640000  1
  O  O32  1  0.44120000  0.85520000  0.14870000  1
  O  O33  1  0.94120000  0.35520000  0.14870000  1
  O  O34  1  0.55880000  0.85520000  0.85130000  1
  O  O35  1  0.05880000  0.35520000  0.85130000  1
  O  O36  1  0.55880000  0.14480000  0.85130000  1
  O  O37  1  0.05880000  0.64480000  0.85130000  1
  O  O38  1  0.44120000  0.14480000  0.14870000  1
  O  O39  1  0.94120000  0.64480000  0.14870000  1
  O  O40  1  0.31050000  0.00000000  0.12250000  1
  O  O41  1  0.81050000  0.50000000  0.12250000  1
  O  O42  1  0.68950000  0.00000000  0.87750000  1
  O  O43  1  0.18950000  0.50000000  0.87750000  1
  O  O44  1  0.50000000  0.35740000  0.50000000  1
  O  O45  1  0.00000000  0.85740000  0.50000000  1
  O  O46  1  0.50000000  0.64260000  0.50000000  1
  O  O47  1  0.00000000  0.14260000  0.50000000  1
  O  O48  1  0.57250000  0.50000000  0.67760000  1
  O  O49  1  0.07250000  0.00000000  0.67760000  1
  O  O50  1  0.42750000  0.50000000  0.32240000  1
  O  O51  1  0.92750000  0.00000000  0.32240000  1
  O  O52  1  0.52410000  0.32810000  0.76230000  1
  O  O53  1  0.02410000  0.82810000  0.76230000  1
  O  O54  1  0.47590000  0.32810000  0.23770000  1
  O  O55  1  0.97590000  0.82810000  0.23770000  1
  O  O56  1  0.47590000  0.67190000  0.23770000  1
  O  O57  1  0.97590000  0.17190000  0.23770000  1
  O  O58  1  0.52410000  0.67190000  0.76230000  1
  O  O59  1  0.02410000  0.17190000  0.76230000  1
  O  O60  1  0.50000000  0.27590000  0.00000000  1
  O  O61  1  0.00000000  0.77590000  0.00000000  1
  O  O62  1  0.50000000  0.72410000  0.00000000  1
  O  O63  1  0.00000000  0.22410000  0.00000000  1
