# generated using pymatgen
data_Si
_symmetry_space_group_name_H-M   'P 1'
_cell_length_a   14.02000000
_cell_length_b   13.46600000
_cell_length_c   10.20200000
_cell_angle_alpha   90.00000000
_cell_angle_beta   107.23900000
_cell_angle_gamma   90.00000000
_symmetry_Int_Tables_number   1
_chemical_formula_structural   Si
_chemical_formula_sum   Si32
_cell_volume   1839.54436066
_cell_formula_units_Z   32
loop_
 _symmetry_equiv_pos_site_id
 _symmetry_equiv_pos_as_xyz
  1  'x, y, z'
loop_
 _atom_site_type_symbol
 _atom_site_label
 _atom_site_symmetry_multiplicity
 _atom_site_fract_x
 _atom_site_fract_y
 _atom_site_fract_z
 _atom_site_occupancy
  Si  Si0  1  0.51130000  0.24070000  0.15490000  1
  Si  Si1  1  0.01130000  0.74070000  0.15490000  1
  Si  Si2  1  0.48870000  0.24070000  0.84510000  1
  Si  Si3  1  0.98870000  0.74070000  0.84510000  1
  Si  Si4  1  0.48870000  0.75930000  0.84510000  1
  Si  Si5  1  0.98870000  0.25930000  0.84510000  1
  Si  Si6  1  0.51130000  0.75930000  0.15490000  1
  Si  Si7  1  0.01130000  0.25930000  0.15490000  1
  Si  Si8  1  0.73180000  0.79360000  0.20140000  1
  Si  Si9  1  0.23180000  0.29360000  0.20140000  1
  Si  Si10  1  0.26820000  0.79360000  0.79860000  1
  Si  Si11  1  0.76820000  0.29360000  0.79860000  1
  Si  Si12  1  0.26820000  0.20640000  0.79860000  1
  Si  Si13  1  0.76820000  0.70640000  0.79860000  1
  Si  Si14  1  0.73180000  0.20640000  0.20140000  1
  Si  Si15  1  0.23180000  0.70640000  0.20140000  1
  Si  Si16  1  0.32460000  0.88400000  0.09510000  1
  Si  Si17  1  0.82460000  0.38400000  0.09510000  1
  Si  Si18  1  0.67540000  0.88400000  0.90490000  1
  Si  Si19  1  0.17540000  0.38400000  0.90490000  1
  Si  Si20  1  0.67540000  0.11600000  0.90490000  1
  Si  Si21  1  0.17540000  0.61600000  0.90490000  1
  Si  Si22  1  0.32460000  0.11600000  0.09510000  1
  Si  Si23  1  0.82460000  0.61600000  0.09510000  1
  Si  Si24  1  0.56960000  0.38180000  0.65290000  1
  Si  Si25  1  0.06960000  0.88180000  0.65290000  1
  Si  Si26  1  0.43040000  0.38180000  0.34710000  1
  Si  Si27  1  0.93040000  0.88180000  0.34710000  1
  Si  Si28  1  0.43040000  0.61820000  0.34710000  1
  Si  Si29  1  0.93040000  0.11820000  0.34710000  1
  Si  Si30  1  0.56960000  0.61820000  0.65290000  1
  Si  Si31  1  0.06960000  0.11820000  0.65290000  1
