# generated using pymatgen
data_SiO4
_symmetry_space_group_name_H-M   'P 1'
_cell_length_a   14.02000000
_cell_length_b   13.46600000
_cell_length_c   10.20200000
_cell_angle_alpha   90.00000000
_cell_angle_beta   107.23900000
_cell_angle_gamma   90.00000000
_symmetry_Int_Tables_number   1
_chemical_formula_structural   SiO4
_chemical_formula_sum   'Si1 O4'
_cell_volume   1839.54436066
_cell_formula_units_Z   1
loop_
 _symmetry_equiv_pos_site_id
 _symmetry_equiv_pos_as_xyz
  1  'x, y, z'
loop_
 _atom_site_type_symbol
 _atom_site_label
 _atom_site_symmetry_multiplicity
 _atom_site_fract_x
 _atom_site_fract_y
 _atom_site_fract_z
 _atom_site_occupancy
  Si  Si0  1  0.17540000  0.61600000  0.90490000  1
  O  O1  1  0.23560000  0.68240000  0.82450000  1
  O  O2  1  0.21890000  0.63950000  1.06640000  1
  O  O3  1  0.05880000  0.64480000  0.85130000  1
  O  O4  1  0.18950000  0.50000000  0.87750000  1
