# generated using pymatgen
data_SiO4
_symmetry_space_group_name_H-M   'P 1'
_cell_length_a   14.02000000
_cell_length_b   13.46600000
_cell_length_c   10.20200000
_cell_angle_alpha   90.00000000
_cell_angle_beta   107.23900000
_cell_angle_gamma   90.00000000
_symmetry_Int_Tables_number   1
_chemical_formula_structural   SiO4
_chemical_formula_sum   'Si1 O4'
_cell_volume   1839.54436066
_cell_formula_units_Z   1
loop_
 _symmetry_equiv_pos_site_id
 _symmetry_equiv_pos_as_xyz
  1  'x, y, z'
loop_
 _atom_site_type_symbol
 _atom_site_label
 _atom_site_symmetry_multiplicity
 _atom_site_fract_x
 _atom_site_fract_y
 _atom_site_fract_z
 _atom_site_occupancy
  Si  Si0  1  0.98870000  0.25930000  0.84510000  1
  O  O1  1  0.87430000  0.28860000  0.76750000  1
  O  O2  1  1.05880000  0.35520000  0.85130000  1
  O  O3  1  1.02410000  0.17190000  0.76230000  1
  O  O4  1  1.00000000  0.22410000  1.00000000  1
