# generated using pymatgen
data_Si
_symmetry_space_group_name_H-M   'P 1'
_cell_length_a   13.69100000
_cell_length_b   13.69100000
_cell_length_c   29.44900000
_cell_angle_alpha   90.00000000
_cell_angle_beta   90.00000000
_cell_angle_gamma   120.00000000
_symmetry_Int_Tables_number   1
_chemical_formula_structural   Si
_chemical_formula_sum   Si72
_cell_volume   4780.48020980
_cell_formula_units_Z   72
loop_
 _symmetry_equiv_pos_site_id
 _symmetry_equiv_pos_as_xyz
  1  'x, y, z'
loop_
 _atom_site_type_symbol
 _atom_site_label
 _atom_site_symmetry_multiplicity
 _atom_site_fract_x
 _atom_site_fract_y
 _atom_site_fract_z
 _atom_site_occupancy
  Si  Si0  1  0.22570000  0.99980000  0.19740000  1
  Si  Si1  1  0.00020000  0.22590000  0.19740000  1
  Si  Si2  1  0.77410000  0.77430000  0.19740000  1
  Si  Si3  1  0.77430000  0.00020000  0.69740000  1
  Si  Si4  1  0.99980000  0.77410000  0.69740000  1
  Si  Si5  1  0.22590000  0.22570000  0.69740000  1
  Si  Si6  1  0.00020000  0.77430000  0.19740000  1
  Si  Si7  1  0.77410000  0.99980000  0.19740000  1
  Si  Si8  1  0.22570000  0.22590000  0.19740000  1
  Si  Si9  1  0.99980000  0.22570000  0.69740000  1
  Si  Si10  1  0.22590000  0.00020000  0.69740000  1
  Si  Si11  1  0.77430000  0.77410000  0.69740000  1
  Si  Si12  1  0.77430000  0.00020000  0.80260000  1
  Si  Si13  1  0.99980000  0.77410000  0.80260000  1
  Si  Si14  1  0.22590000  0.22570000  0.80260000  1
  Si  Si15  1  0.22570000  0.99980000  0.30260000  1
  Si  Si16  1  0.00020000  0.22590000  0.30260000  1
  Si  Si17  1  0.77410000  0.77430000  0.30260000  1
  Si  Si18  1  0.99980000  0.22570000  0.80260000  1
  Si  Si19  1  0.22590000  0.00020000  0.80260000  1
  Si  Si20  1  0.77430000  0.77410000  0.80260000  1
  Si  Si21  1  0.00020000  0.77430000  0.30260000  1
  Si  Si22  1  0.77410000  0.99980000  0.30260000  1
  Si  Si23  1  0.22570000  0.22590000  0.30260000  1
  Si  Si24  1  0.33390000  0.44090000  0.46970000  1
  Si  Si25  1  0.55910000  0.89300000  0.46970000  1
  Si  Si26  1  0.10700000  0.66610000  0.46970000  1
  Si  Si27  1  0.66610000  0.55910000  0.96970000  1
  Si  Si28  1  0.44090000  0.10700000  0.96970000  1
  Si  Si29  1  0.89300000  0.33390000  0.96970000  1
  Si  Si30  1  0.55910000  0.66610000  0.46970000  1
  Si  Si31  1  0.10700000  0.44090000  0.46970000  1
  Si  Si32  1  0.33390000  0.89300000  0.46970000  1
  Si  Si33  1  0.44090000  0.33390000  0.96970000  1
  Si  Si34  1  0.89300000  0.55910000  0.96970000  1
  Si  Si35  1  0.66610000  0.10700000  0.96970000  1
  Si  Si36  1  0.66610000  0.55910000  0.53030000  1
  Si  Si37  1  0.44090000  0.10700000  0.53030000  1
  Si  Si38  1  0.89300000  0.33390000  0.53030000  1
  Si  Si39  1  0.33390000  0.44090000  0.03030000  1
  Si  Si40  1  0.55910000  0.89300000  0.03030000  1
  Si  Si41  1  0.10700000  0.66610000  0.03030000  1
  Si  Si42  1  0.44090000  0.33390000  0.53030000  1
  Si  Si43  1  0.89300000  0.55910000  0.53030000  1
  Si  Si44  1  0.66610000  0.10700000  0.53030000  1
  Si  Si45  1  0.55910000  0.66610000  0.03030000  1
  Si  Si46  1  0.10700000  0.44090000  0.03030000  1
  Si  Si47  1  0.33390000  0.89300000  0.03030000  1
  Si  Si48  1  0.44130000  0.33320000  0.63610000  1
  Si  Si49  1  0.66680000  0.10810000  0.63610000  1
  Si  Si50  1  0.89190000  0.55870000  0.63610000  1
  Si  Si51  1  0.55870000  0.66680000  0.13610000  1
  Si  Si52  1  0.33320000  0.89190000  0.13610000  1
  Si  Si53  1  0.10810000  0.44130000  0.13610000  1
  Si  Si54  1  0.66680000  0.55870000  0.63610000  1
  Si  Si55  1  0.89190000  0.33320000  0.63610000  1
  Si  Si56  1  0.44130000  0.10810000  0.63610000  1
  Si  Si57  1  0.33320000  0.44130000  0.13610000  1
  Si  Si58  1  0.10810000  0.66680000  0.13610000  1
  Si  Si59  1  0.55870000  0.89190000  0.13610000  1
  Si  Si60  1  0.55870000  0.66680000  0.36390000  1
  Si  Si61  1  0.33320000  0.89190000  0.36390000  1
  Si  Si62  1  0.10810000  0.44130000  0.36390000  1
  Si  Si63  1  0.44130000  0.33320000  0.86390000  1
  Si  Si64  1  0.66680000  0.10810000  0.86390000  1
  Si  Si65  1  0.89190000  0.55870000  0.86390000  1
  Si  Si66  1  0.33320000  0.44130000  0.36390000  1
  Si  Si67  1  0.10810000  0.66680000  0.36390000  1
  Si  Si68  1  0.55870000  0.89190000  0.36390000  1
  Si  Si69  1  0.66680000  0.55870000  0.86390000  1
  Si  Si70  1  0.89190000  0.33320000  0.86390000  1
  Si  Si71  1  0.44130000  0.10810000  0.86390000  1
