# generated using pymatgen
data_O2
_symmetry_space_group_name_H-M   'P 1'
_cell_length_a   13.69100000
_cell_length_b   13.69100000
_cell_length_c   29.44900000
_cell_angle_alpha   90.00000000
_cell_angle_beta   90.00000000
_cell_angle_gamma   120.00000000
_symmetry_Int_Tables_number   1
_chemical_formula_structural   O2
_chemical_formula_sum   O144
_cell_volume   4780.48020980
_cell_formula_units_Z   72
loop_
 _symmetry_equiv_pos_site_id
 _symmetry_equiv_pos_as_xyz
  1  'x, y, z'
loop_
 _atom_site_type_symbol
 _atom_site_label
 _atom_site_symmetry_multiplicity
 _atom_site_fract_x
 _atom_site_fract_y
 _atom_site_fract_z
 _atom_site_occupancy
  O  O0  1  0.25820000  0.00120000  0.25000000  1
  O  O1  1  0.99880000  0.25700000  0.25000000  1
  O  O2  1  0.74300000  0.74180000  0.25000000  1
  O  O3  1  0.74180000  0.99880000  0.75000000  1
  O  O4  1  0.00120000  0.74300000  0.75000000  1
  O  O5  1  0.25700000  0.25820000  0.75000000  1
  O  O6  1  0.99880000  0.74180000  0.25000000  1
  O  O7  1  0.74300000  0.00120000  0.25000000  1
  O  O8  1  0.25820000  0.25700000  0.25000000  1
  O  O9  1  0.00120000  0.25820000  0.75000000  1
  O  O10  1  0.25700000  0.99880000  0.75000000  1
  O  O11  1  0.74180000  0.74300000  0.75000000  1
  O  O12  1  0.24150000  0.12070000  0.18370000  1
  O  O13  1  0.87930000  0.12080000  0.18370000  1
  O  O14  1  0.87920000  0.75850000  0.18370000  1
  O  O15  1  0.75850000  0.87930000  0.68370000  1
  O  O16  1  0.12070000  0.87920000  0.68370000  1
  O  O17  1  0.12080000  0.24150000  0.68370000  1
  O  O18  1  0.75850000  0.87930000  0.81630000  1
  O  O19  1  0.12070000  0.87920000  0.81630000  1
  O  O20  1  0.12080000  0.24150000  0.81630000  1
  O  O21  1  0.24150000  0.12070000  0.31630000  1
  O  O22  1  0.87930000  0.12080000  0.31630000  1
  O  O23  1  0.87920000  0.75850000  0.31630000  1
  O  O24  1  0.30700000  0.97410000  0.16640000  1
  O  O25  1  0.02590000  0.33290000  0.16640000  1
  O  O26  1  0.66710000  0.69300000  0.16640000  1
  O  O27  1  0.69300000  0.02590000  0.66640000  1
  O  O28  1  0.97410000  0.66710000  0.66640000  1
  O  O29  1  0.33290000  0.30700000  0.66640000  1
  O  O30  1  0.02590000  0.69300000  0.16640000  1
  O  O31  1  0.66710000  0.97410000  0.16640000  1
  O  O32  1  0.30700000  0.33290000  0.16640000  1
  O  O33  1  0.97410000  0.30700000  0.66640000  1
  O  O34  1  0.33290000  0.02590000  0.66640000  1
  O  O35  1  0.69300000  0.66710000  0.66640000  1
  O  O36  1  0.69300000  0.02590000  0.83360000  1
  O  O37  1  0.97410000  0.66710000  0.83360000  1
  O  O38  1  0.33290000  0.30700000  0.83360000  1
  O  O39  1  0.30700000  0.97410000  0.33360000  1
  O  O40  1  0.02590000  0.33290000  0.33360000  1
  O  O41  1  0.66710000  0.69300000  0.33360000  1
  O  O42  1  0.97410000  0.30700000  0.83360000  1
  O  O43  1  0.33290000  0.02590000  0.83360000  1
  O  O44  1  0.69300000  0.66710000  0.83360000  1
  O  O45  1  0.02590000  0.69300000  0.33360000  1
  O  O46  1  0.66710000  0.97410000  0.33360000  1
  O  O47  1  0.30700000  0.33290000  0.33360000  1
  O  O48  1  0.09650000  0.90350000  0.18930000  1
  O  O49  1  0.09650000  0.19300000  0.18930000  1
  O  O50  1  0.80700000  0.90350000  0.18930000  1
  O  O51  1  0.90350000  0.09650000  0.68930000  1
  O  O52  1  0.90350000  0.80700000  0.68930000  1
  O  O53  1  0.19300000  0.09650000  0.68930000  1
  O  O54  1  0.90350000  0.09650000  0.81070000  1
  O  O55  1  0.90350000  0.80700000  0.81070000  1
  O  O56  1  0.19300000  0.09650000  0.81070000  1
  O  O57  1  0.09650000  0.90350000  0.31070000  1
  O  O58  1  0.09650000  0.19300000  0.31070000  1
  O  O59  1  0.80700000  0.90350000  0.31070000  1
  O  O60  1  0.33470000  0.41210000  0.41680000  1
  O  O61  1  0.58790000  0.92260000  0.41680000  1
  O  O62  1  0.07740000  0.66530000  0.41680000  1
  O  O63  1  0.66530000  0.58790000  0.91680000  1
  O  O64  1  0.41210000  0.07740000  0.91680000  1
  O  O65  1  0.92260000  0.33470000  0.91680000  1
  O  O66  1  0.58790000  0.66530000  0.41680000  1
  O  O67  1  0.07740000  0.41210000  0.41680000  1
  O  O68  1  0.33470000  0.92260000  0.41680000  1
  O  O69  1  0.41210000  0.33470000  0.91680000  1
  O  O70  1  0.92260000  0.58790000  0.91680000  1
  O  O71  1  0.66530000  0.07740000  0.91680000  1
  O  O72  1  0.66530000  0.58790000  0.58320000  1
  O  O73  1  0.41210000  0.07740000  0.58320000  1
  O  O74  1  0.92260000  0.33470000  0.58320000  1
  O  O75  1  0.33470000  0.41210000  0.08320000  1
  O  O76  1  0.58790000  0.92260000  0.08320000  1
  O  O77  1  0.07740000  0.66530000  0.08320000  1
  O  O78  1  0.41210000  0.33470000  0.58320000  1
  O  O79  1  0.92260000  0.58790000  0.58320000  1
  O  O80  1  0.66530000  0.07740000  0.58320000  1
  O  O81  1  0.58790000  0.66530000  0.08320000  1
  O  O82  1  0.07740000  0.41210000  0.08320000  1
  O  O83  1  0.33470000  0.92260000  0.08320000  1
  O  O84  1  0.21320000  0.42630000  0.48280000  1
  O  O85  1  0.57370000  0.78690000  0.48280000  1
  O  O86  1  0.21310000  0.78680000  0.48280000  1
  O  O87  1  0.78680000  0.57370000  0.98280000  1
  O  O88  1  0.42630000  0.21310000  0.98280000  1
  O  O89  1  0.78690000  0.21320000  0.98280000  1
  O  O90  1  0.78680000  0.57370000  0.51720000  1
  O  O91  1  0.42630000  0.21310000  0.51720000  1
  O  O92  1  0.78690000  0.21320000  0.51720000  1
  O  O93  1  0.21320000  0.42630000  0.01720000  1
  O  O94  1  0.57370000  0.78690000  0.01720000  1
  O  O95  1  0.21310000  0.78680000  0.01720000  1
  O  O96  1  0.35590000  0.35590000  0.50000000  1
  O  O97  1  0.64410000  0.00000000  0.50000000  1
  O  O98  1  0.00000000  0.64410000  0.50000000  1
  O  O99  1  0.64410000  0.64410000  0.00000000  1
  O  O100  1  0.35590000  0.00000000  0.00000000  1
  O  O101  1  0.00000000  0.35590000  0.00000000  1
  O  O102  1  0.64410000  0.64410000  0.50000000  1
  O  O103  1  0.00000000  0.35590000  0.50000000  1
  O  O104  1  0.35590000  0.00000000  0.50000000  1
  O  O105  1  0.35590000  0.35590000  0.00000000  1
  O  O106  1  0.00000000  0.64410000  0.00000000  1
  O  O107  1  0.64410000  0.00000000  0.00000000  1
  O  O108  1  0.43130000  0.56870000  0.47950000  1
  O  O109  1  0.43130000  0.86260000  0.47950000  1
  O  O110  1  0.13740000  0.56870000  0.47950000  1
  O  O111  1  0.56870000  0.43130000  0.97950000  1
  O  O112  1  0.56870000  0.13740000  0.97950000  1
  O  O113  1  0.86260000  0.43130000  0.97950000  1
  O  O114  1  0.56870000  0.43130000  0.52050000  1
  O  O115  1  0.56870000  0.13740000  0.52050000  1
  O  O116  1  0.86260000  0.43130000  0.52050000  1
  O  O117  1  0.43130000  0.56870000  0.02050000  1
  O  O118  1  0.43130000  0.86260000  0.02050000  1
  O  O119  1  0.13740000  0.56870000  0.02050000  1
  O  O120  1  0.47420000  0.23710000  0.64460000  1
  O  O121  1  0.76290000  0.23710000  0.64460000  1
  O  O122  1  0.76290000  0.52580000  0.64460000  1
  O  O123  1  0.52580000  0.76290000  0.14460000  1
  O  O124  1  0.23710000  0.76290000  0.14460000  1
  O  O125  1  0.23710000  0.47420000  0.14460000  1
  O  O126  1  0.52580000  0.76290000  0.35540000  1
  O  O127  1  0.23710000  0.76290000  0.35540000  1
  O  O128  1  0.23710000  0.47420000  0.35540000  1
  O  O129  1  0.47420000  0.23710000  0.85540000  1
  O  O130  1  0.76290000  0.23710000  0.85540000  1
  O  O131  1  0.76290000  0.52580000  0.85540000  1
  O  O132  1  0.54580000  0.45420000  0.65010000  1
  O  O133  1  0.54580000  0.09160000  0.65010000  1
  O  O134  1  0.90840000  0.45420000  0.65010000  1
  O  O135  1  0.45420000  0.54580000  0.15010000  1
  O  O136  1  0.45420000  0.90840000  0.15010000  1
  O  O137  1  0.09160000  0.54580000  0.15010000  1
  O  O138  1  0.45420000  0.54580000  0.34990000  1
  O  O139  1  0.45420000  0.90840000  0.34990000  1
  O  O140  1  0.09160000  0.54580000  0.34990000  1
  O  O141  1  0.54580000  0.45420000  0.84990000  1
  O  O142  1  0.54580000  0.09160000  0.84990000  1
  O  O143  1  0.90840000  0.45420000  0.84990000  1
