# generated using pymatgen
data_SiO4
_symmetry_space_group_name_H-M   'P 1'
_cell_length_a   13.69100000
_cell_length_b   13.69100000
_cell_length_c   29.44900000
_cell_angle_alpha   90.00000000
_cell_angle_beta   90.00000000
_cell_angle_gamma   120.00000000
_symmetry_Int_Tables_number   1
_chemical_formula_structural   SiO4
_chemical_formula_sum   'Si1 O4'
_cell_volume   4780.48020980
_cell_formula_units_Z   1
loop_
 _symmetry_equiv_pos_site_id
 _symmetry_equiv_pos_as_xyz
  1  'x, y, z'
loop_
 _atom_site_type_symbol
 _atom_site_label
 _atom_site_symmetry_multiplicity
 _atom_site_fract_x
 _atom_site_fract_y
 _atom_site_fract_z
 _atom_site_occupancy
  Si  Si0  1  0.89300000  0.33390000  0.53030000  1
  O  O1  1  0.92260000  0.33470000  0.58320000  1
  O  O2  1  0.78690000  0.21320000  0.51720000  1
  O  O3  1  1.00000000  0.35590000  0.50000000  1
  O  O4  1  0.86260000  0.43130000  0.52050000  1
