# generated using pymatgen
data_SiO4
_symmetry_space_group_name_H-M   'P 1'
_cell_length_a   14.39000000
_cell_length_b   14.39000000
_cell_length_c   25.19800000
_cell_angle_alpha   90.00000000
_cell_angle_beta   90.00000000
_cell_angle_gamma   120.00000000
_symmetry_Int_Tables_number   1
_chemical_formula_structural   SiO4
_chemical_formula_sum   'Si1 O4'
_cell_volume   4518.74975578
_cell_formula_units_Z   1
loop_
 _symmetry_equiv_pos_site_id
 _symmetry_equiv_pos_as_xyz
  1  'x, y, z'
loop_
 _atom_site_type_symbol
 _atom_site_label
 _atom_site_symmetry_multiplicity
 _atom_site_fract_x
 _atom_site_fract_y
 _atom_site_fract_z
 _atom_site_occupancy
  Si  Si0  1  0.23480000  0.76520000  0.13700000  1
  O  O1  1  0.27240000  0.72760000  0.08500000  1
  O  O2  1  0.10600000  0.71070000  0.13740000  1
  O  O3  1  0.28930000  0.89400000  0.13740000  1
  O  O4  1  0.27240000  0.72770000  0.18900000  1
