# generated using pymatgen
data_SiO4
_symmetry_space_group_name_H-M   'P 1'
_cell_length_a   14.39000000
_cell_length_b   14.39000000
_cell_length_c   25.19800000
_cell_angle_alpha   90.00000000
_cell_angle_beta   90.00000000
_cell_angle_gamma   120.00000000
_symmetry_Int_Tables_number   1
_chemical_formula_structural   SiO4
_chemical_formula_sum   'Si1 O4'
_cell_volume   4518.74975578
_cell_formula_units_Z   1
loop_
 _symmetry_equiv_pos_site_id
 _symmetry_equiv_pos_as_xyz
  1  'x, y, z'
loop_
 _atom_site_type_symbol
 _atom_site_label
 _atom_site_symmetry_multiplicity
 _atom_site_fract_x
 _atom_site_fract_y
 _atom_site_fract_z
 _atom_site_occupancy
  Si  Si0  1  0.12700000  0.87300000  0.44010000  1
  O  O1  1  0.17600000  0.82400000  0.39860000  1
  O  O2  1  0.18210000  1.00000000  0.43020000  1
  O  O3  1  0.00000000  0.81790000  0.43020000  1
  O  O4  1  0.14950000  0.85060000  0.50000000  1
