# generated using pymatgen
data_O2
_symmetry_space_group_name_H-M   'P 1'
_cell_length_a   14.39000000
_cell_length_b   14.39000000
_cell_length_c   25.19800000
_cell_angle_alpha   90.00000000
_cell_angle_beta   90.00000000
_cell_angle_gamma   120.00000000
_symmetry_Int_Tables_number   1
_chemical_formula_structural   O2
_chemical_formula_sum   O144
_cell_volume   4518.74975578
_cell_formula_units_Z   72
loop_
 _symmetry_equiv_pos_site_id
 _symmetry_equiv_pos_as_xyz
  1  'x, y, z'
loop_
 _atom_site_type_symbol
 _atom_site_label
 _atom_site_symmetry_multiplicity
 _atom_site_fract_x
 _atom_site_fract_y
 _atom_site_fract_z
 _atom_site_occupancy
  O  O0  1  0.66666667  0.33333333  0.00000000  1
  O  O1  1  0.33333333  0.66666667  0.00000000  1
  O  O2  1  0.54480000  0.27240000  0.08500000  1
  O  O3  1  0.72760000  0.27240000  0.08500000  1
  O  O4  1  0.72760000  0.45520000  0.08500000  1
  O  O5  1  0.45520000  0.72760000  0.08500000  1
  O  O6  1  0.27240000  0.72760000  0.08500000  1
  O  O7  1  0.27240000  0.54480000  0.08500000  1
  O  O8  1  0.45520000  0.72760000  0.91500000  1
  O  O9  1  0.27240000  0.72760000  0.91500000  1
  O  O10  1  0.27240000  0.54480000  0.91500000  1
  O  O11  1  0.54480000  0.27240000  0.91500000  1
  O  O12  1  0.72760000  0.27240000  0.91500000  1
  O  O13  1  0.72760000  0.45520000  0.91500000  1
  O  O14  1  0.39530000  0.10600000  0.13740000  1
  O  O15  1  0.89400000  0.28930000  0.13740000  1
  O  O16  1  0.71070000  0.60470000  0.13740000  1
  O  O17  1  0.60470000  0.89400000  0.13740000  1
  O  O18  1  0.10600000  0.71070000  0.13740000  1
  O  O19  1  0.28930000  0.39530000  0.13740000  1
  O  O20  1  0.89400000  0.60470000  0.13740000  1
  O  O21  1  0.71070000  0.10600000  0.13740000  1
  O  O22  1  0.39530000  0.28930000  0.13740000  1
  O  O23  1  0.10600000  0.39530000  0.13740000  1
  O  O24  1  0.28930000  0.89400000  0.13740000  1
  O  O25  1  0.60470000  0.71070000  0.13740000  1
  O  O26  1  0.60470000  0.89400000  0.86260000  1
  O  O27  1  0.10600000  0.71070000  0.86260000  1
  O  O28  1  0.28930000  0.39530000  0.86260000  1
  O  O29  1  0.39530000  0.10600000  0.86260000  1
  O  O30  1  0.89400000  0.28930000  0.86260000  1
  O  O31  1  0.71070000  0.60470000  0.86260000  1
  O  O32  1  0.10600000  0.39530000  0.86260000  1
  O  O33  1  0.28930000  0.89400000  0.86260000  1
  O  O34  1  0.60470000  0.71070000  0.86260000  1
  O  O35  1  0.89400000  0.60470000  0.86260000  1
  O  O36  1  0.71070000  0.10600000  0.86260000  1
  O  O37  1  0.39530000  0.28930000  0.86260000  1
  O  O38  1  0.54470000  0.27240000  0.18900000  1
  O  O39  1  0.72760000  0.27230000  0.18900000  1
  O  O40  1  0.72770000  0.45530000  0.18900000  1
  O  O41  1  0.45530000  0.72760000  0.18900000  1
  O  O42  1  0.27240000  0.72770000  0.18900000  1
  O  O43  1  0.27230000  0.54470000  0.18900000  1
  O  O44  1  0.45530000  0.72760000  0.81100000  1
  O  O45  1  0.27240000  0.72770000  0.81100000  1
  O  O46  1  0.27230000  0.54470000  0.81100000  1
  O  O47  1  0.54470000  0.27240000  0.81100000  1
  O  O48  1  0.72760000  0.27230000  0.81100000  1
  O  O49  1  0.72770000  0.45530000  0.81100000  1
  O  O50  1  0.66666667  0.33333333  0.27390000  1
  O  O51  1  0.33333333  0.66666667  0.27390000  1
  O  O52  1  0.33333333  0.66666667  0.72610000  1
  O  O53  1  0.66666667  0.33333333  0.72610000  1
  O  O54  1  0.38690000  0.00000000  0.22380000  1
  O  O55  1  0.00000000  0.38690000  0.22380000  1
  O  O56  1  0.61310000  0.61310000  0.22380000  1
  O  O57  1  0.61310000  0.00000000  0.22380000  1
  O  O58  1  0.00000000  0.61310000  0.22380000  1
  O  O59  1  0.38690000  0.38690000  0.22380000  1
  O  O60  1  0.61310000  0.00000000  0.77620000  1
  O  O61  1  0.00000000  0.61310000  0.77620000  1
  O  O62  1  0.38690000  0.38690000  0.77620000  1
  O  O63  1  0.38690000  0.00000000  0.77620000  1
  O  O64  1  0.00000000  0.38690000  0.77620000  1
  O  O65  1  0.61310000  0.61310000  0.77620000  1
  O  O66  1  0.50000000  0.00000000  0.14190000  1
  O  O67  1  0.00000000  0.50000000  0.14190000  1
  O  O68  1  0.50000000  0.50000000  0.14190000  1
  O  O69  1  0.50000000  0.00000000  0.85810000  1
  O  O70  1  0.00000000  0.50000000  0.85810000  1
  O  O71  1  0.50000000  0.50000000  0.85810000  1
  O  O72  1  0.50000000  0.00000000  0.30580000  1
  O  O73  1  0.00000000  0.50000000  0.30580000  1
  O  O74  1  0.50000000  0.50000000  0.30580000  1
  O  O75  1  0.50000000  0.00000000  0.69420000  1
  O  O76  1  0.00000000  0.50000000  0.69420000  1
  O  O77  1  0.50000000  0.50000000  0.69420000  1
  O  O78  1  0.39350000  0.10520000  0.31010000  1
  O  O79  1  0.89480000  0.28830000  0.31010000  1
  O  O80  1  0.71170000  0.60650000  0.31010000  1
  O  O81  1  0.60650000  0.89480000  0.31010000  1
  O  O82  1  0.10520000  0.71170000  0.31010000  1
  O  O83  1  0.28830000  0.39350000  0.31010000  1
  O  O84  1  0.89480000  0.60650000  0.31010000  1
  O  O85  1  0.71170000  0.10520000  0.31010000  1
  O  O86  1  0.39350000  0.28830000  0.31010000  1
  O  O87  1  0.10520000  0.39350000  0.31010000  1
  O  O88  1  0.28830000  0.89480000  0.31010000  1
  O  O89  1  0.60650000  0.71170000  0.31010000  1
  O  O90  1  0.60650000  0.89480000  0.68990000  1
  O  O91  1  0.10520000  0.71170000  0.68990000  1
  O  O92  1  0.28830000  0.39350000  0.68990000  1
  O  O93  1  0.39350000  0.10520000  0.68990000  1
  O  O94  1  0.89480000  0.28830000  0.68990000  1
  O  O95  1  0.71170000  0.60650000  0.68990000  1
  O  O96  1  0.10520000  0.39350000  0.68990000  1
  O  O97  1  0.28830000  0.89480000  0.68990000  1
  O  O98  1  0.60650000  0.71170000  0.68990000  1
  O  O99  1  0.89480000  0.60650000  0.68990000  1
  O  O100  1  0.71170000  0.10520000  0.68990000  1
  O  O101  1  0.39350000  0.28830000  0.68990000  1
  O  O102  1  0.54530000  0.27260000  0.35930000  1
  O  O103  1  0.72740000  0.27270000  0.35930000  1
  O  O104  1  0.72730000  0.45470000  0.35930000  1
  O  O105  1  0.45470000  0.72740000  0.35930000  1
  O  O106  1  0.27260000  0.72730000  0.35930000  1
  O  O107  1  0.27270000  0.54530000  0.35930000  1
  O  O108  1  0.45470000  0.72740000  0.64070000  1
  O  O109  1  0.27260000  0.72730000  0.64070000  1
  O  O110  1  0.27270000  0.54530000  0.64070000  1
  O  O111  1  0.54530000  0.27260000  0.64070000  1
  O  O112  1  0.72740000  0.27270000  0.64070000  1
  O  O113  1  0.72730000  0.45470000  0.64070000  1
  O  O114  1  0.35200000  0.17600000  0.39860000  1
  O  O115  1  0.82400000  0.17600000  0.39860000  1
  O  O116  1  0.82400000  0.64800000  0.39860000  1
  O  O117  1  0.64800000  0.82400000  0.39860000  1
  O  O118  1  0.17600000  0.82400000  0.39860000  1
  O  O119  1  0.17600000  0.35200000  0.39860000  1
  O  O120  1  0.64800000  0.82400000  0.60140000  1
  O  O121  1  0.17600000  0.82400000  0.60140000  1
  O  O122  1  0.17600000  0.35200000  0.60140000  1
  O  O123  1  0.35200000  0.17600000  0.60140000  1
  O  O124  1  0.82400000  0.17600000  0.60140000  1
  O  O125  1  0.82400000  0.64800000  0.60140000  1
  O  O126  1  0.18210000  0.00000000  0.43020000  1
  O  O127  1  0.00000000  0.18210000  0.43020000  1
  O  O128  1  0.81790000  0.81790000  0.43020000  1
  O  O129  1  0.81790000  0.00000000  0.43020000  1
  O  O130  1  0.00000000  0.81790000  0.43020000  1
  O  O131  1  0.18210000  0.18210000  0.43020000  1
  O  O132  1  0.81790000  0.00000000  0.56980000  1
  O  O133  1  0.00000000  0.81790000  0.56980000  1
  O  O134  1  0.18210000  0.18210000  0.56980000  1
  O  O135  1  0.18210000  0.00000000  0.56980000  1
  O  O136  1  0.00000000  0.18210000  0.56980000  1
  O  O137  1  0.81790000  0.81790000  0.56980000  1
  O  O138  1  0.29890000  0.14950000  0.50000000  1
  O  O139  1  0.85050000  0.14940000  0.50000000  1
  O  O140  1  0.85060000  0.70110000  0.50000000  1
  O  O141  1  0.70110000  0.85050000  0.50000000  1
  O  O142  1  0.14950000  0.85060000  0.50000000  1
  O  O143  1  0.14940000  0.29890000  0.50000000  1
