# generated using pymatgen
data_SiO4
_symmetry_space_group_name_H-M   'P 1'
_cell_length_a   20.09000000
_cell_length_b   19.73800000
_cell_length_c   13.14200000
_cell_angle_alpha   90.00000000
_cell_angle_beta   90.00000000
_cell_angle_gamma   90.00000000
_symmetry_Int_Tables_number   1
_chemical_formula_structural   SiO4
_chemical_formula_sum   'Si1 O4'
_cell_volume   5211.28163164
_cell_formula_units_Z   1
loop_
 _symmetry_equiv_pos_site_id
 _symmetry_equiv_pos_as_xyz
  1  'x, y, z'
loop_
 _atom_site_type_symbol
 _atom_site_label
 _atom_site_symmetry_multiplicity
 _atom_site_fract_x
 _atom_site_fract_y
 _atom_site_fract_z
 _atom_site_occupancy
  Si  Si0  1  0.72670000  0.32780000  0.95980000  1
  O  O1  1  0.72010000  0.36870000  0.85440000  1
  O  O2  1  0.67830000  0.36110000  1.04390000  1
  O  O3  1  0.70570000  0.25000000  0.94210000  1
  O  O4  1  0.80240000  0.33130000  0.99970000  1
