# generated using pymatgen
data_SiO4
_symmetry_space_group_name_H-M   'P 1'
_cell_length_a   20.09000000
_cell_length_b   19.73800000
_cell_length_c   13.14200000
_cell_angle_alpha   90.00000000
_cell_angle_beta   90.00000000
_cell_angle_gamma   90.00000000
_symmetry_Int_Tables_number   1
_chemical_formula_structural   SiO4
_chemical_formula_sum   'Si1 O4'
_cell_volume   5211.28163164
_cell_formula_units_Z   1
loop_
 _symmetry_equiv_pos_site_id
 _symmetry_equiv_pos_as_xyz
  1  'x, y, z'
loop_
 _atom_site_type_symbol
 _atom_site_label
 _atom_site_symmetry_multiplicity
 _atom_site_fract_x
 _atom_site_fract_y
 _atom_site_fract_z
 _atom_site_occupancy
  Si  Si0  1  0.56570000  0.87940000  0.69130000  1
  O  O1  1  0.57280000  0.95890000  0.71680000  1
  O  O2  1  0.49110000  0.85480000  0.71690000  1
  O  O3  1  0.58090000  0.86700000  0.57250000  1
  O  O4  1  0.61770000  0.83700000  0.75940000  1
