# generated using pymatgen
data_SiO4
_symmetry_space_group_name_H-M   'P 1'
_cell_length_a   20.09000000
_cell_length_b   19.73800000
_cell_length_c   13.14200000
_cell_angle_alpha   90.00000000
_cell_angle_beta   90.00000000
_cell_angle_gamma   90.00000000
_symmetry_Int_Tables_number   1
_chemical_formula_structural   SiO4
_chemical_formula_sum   'Si1 O4'
_cell_volume   5211.28163164
_cell_formula_units_Z   1
loop_
 _symmetry_equiv_pos_site_id
 _symmetry_equiv_pos_as_xyz
  1  'x, y, z'
loop_
 _atom_site_type_symbol
 _atom_site_label
 _atom_site_symmetry_multiplicity
 _atom_site_fract_x
 _atom_site_fract_y
 _atom_site_fract_z
 _atom_site_occupancy
  Si  Si0  1  0.91950000  0.82740000  0.81950000  1
  O  O1  1  0.89250000  0.87350000  0.91170000  1
  O  O2  1  0.99110000  0.85480000  0.78310000  1
  O  O3  1  0.86810000  0.83110000  0.72570000  1
  O  O4  1  0.92630000  0.75000000  0.85690000  1
