# generated using pymatgen
data_Si
_symmetry_space_group_name_H-M   'P 1'
_cell_length_a   20.09000000
_cell_length_b   19.73800000
_cell_length_c   13.14200000
_cell_angle_alpha   90.00000000
_cell_angle_beta   90.00000000
_cell_angle_gamma   90.00000000
_symmetry_Int_Tables_number   1
_chemical_formula_structural   Si
_chemical_formula_sum   Si96
_cell_volume   5211.28163164
_cell_formula_units_Z   96
loop_
 _symmetry_equiv_pos_site_id
 _symmetry_equiv_pos_as_xyz
  1  'x, y, z'
loop_
 _atom_site_type_symbol
 _atom_site_label
 _atom_site_symmetry_multiplicity
 _atom_site_fract_x
 _atom_site_fract_y
 _atom_site_fract_z
 _atom_site_occupancy
  Si  Si0  1  0.42140000  0.07110000  0.68980000  1
  Si  Si1  1  0.07860000  0.57110000  0.18980000  1
  Si  Si2  1  0.42140000  0.42890000  0.68980000  1
  Si  Si3  1  0.07860000  0.92890000  0.18980000  1
  Si  Si4  1  0.57860000  0.92890000  0.31020000  1
  Si  Si5  1  0.92140000  0.42890000  0.81020000  1
  Si  Si6  1  0.57860000  0.57110000  0.31020000  1
  Si  Si7  1  0.92140000  0.07110000  0.81020000  1
  Si  Si8  1  0.32590000  0.03360000  0.85000000  1
  Si  Si9  1  0.17410000  0.53360000  0.35000000  1
  Si  Si10  1  0.32590000  0.46640000  0.85000000  1
  Si  Si11  1  0.17410000  0.96640000  0.35000000  1
  Si  Si12  1  0.67410000  0.96640000  0.15000000  1
  Si  Si13  1  0.82590000  0.46640000  0.65000000  1
  Si  Si14  1  0.67410000  0.53360000  0.15000000  1
  Si  Si15  1  0.82590000  0.03360000  0.65000000  1
  Si  Si16  1  0.27920000  0.05360000  0.06550000  1
  Si  Si17  1  0.22080000  0.55360000  0.56550000  1
  Si  Si18  1  0.27920000  0.44640000  0.06550000  1
  Si  Si19  1  0.22080000  0.94640000  0.56550000  1
  Si  Si20  1  0.72080000  0.94640000  0.93450000  1
  Si  Si21  1  0.77920000  0.44640000  0.43450000  1
  Si  Si22  1  0.72080000  0.55360000  0.93450000  1
  Si  Si23  1  0.77920000  0.05360000  0.43450000  1
  Si  Si24  1  0.12460000  0.05140000  0.04810000  1
  Si  Si25  1  0.37540000  0.55140000  0.54810000  1
  Si  Si26  1  0.12460000  0.44860000  0.04810000  1
  Si  Si27  1  0.37540000  0.94860000  0.54810000  1
  Si  Si28  1  0.87540000  0.94860000  0.95190000  1
  Si  Si29  1  0.62460000  0.44860000  0.45190000  1
  Si  Si30  1  0.87540000  0.55140000  0.95190000  1
  Si  Si31  1  0.62460000  0.05140000  0.45190000  1
  Si  Si32  1  0.07210000  0.03600000  0.82330000  1
  Si  Si33  1  0.42790000  0.53600000  0.32330000  1
  Si  Si34  1  0.07210000  0.46400000  0.82330000  1
  Si  Si35  1  0.42790000  0.96400000  0.32330000  1
  Si  Si36  1  0.92790000  0.96400000  0.17670000  1
  Si  Si37  1  0.57210000  0.46400000  0.67670000  1
  Si  Si38  1  0.92790000  0.53600000  0.17670000  1
  Si  Si39  1  0.57210000  0.03600000  0.67670000  1
  Si  Si40  1  0.20340000  0.06870000  0.71970000  1
  Si  Si41  1  0.29660000  0.56870000  0.21970000  1
  Si  Si42  1  0.20340000  0.43130000  0.71970000  1
  Si  Si43  1  0.29660000  0.93130000  0.21970000  1
  Si  Si44  1  0.79660000  0.93130000  0.28030000  1
  Si  Si45  1  0.70340000  0.43130000  0.78030000  1
  Si  Si46  1  0.79660000  0.56870000  0.28030000  1
  Si  Si47  1  0.70340000  0.06870000  0.78030000  1
  Si  Si48  1  0.41950000  0.82740000  0.68050000  1
  Si  Si49  1  0.08050000  0.32740000  0.18050000  1
  Si  Si50  1  0.41950000  0.67260000  0.68050000  1
  Si  Si51  1  0.08050000  0.17260000  0.18050000  1
  Si  Si52  1  0.58050000  0.17260000  0.31950000  1
  Si  Si53  1  0.91950000  0.67260000  0.81950000  1
  Si  Si54  1  0.58050000  0.32740000  0.31950000  1
  Si  Si55  1  0.91950000  0.82740000  0.81950000  1
  Si  Si56  1  0.31520000  0.87650000  0.83610000  1
  Si  Si57  1  0.18480000  0.37650000  0.33610000  1
  Si  Si58  1  0.31520000  0.62350000  0.83610000  1
  Si  Si59  1  0.18480000  0.12350000  0.33610000  1
  Si  Si60  1  0.68480000  0.12350000  0.16390000  1
  Si  Si61  1  0.81520000  0.62350000  0.66390000  1
  Si  Si62  1  0.68480000  0.37650000  0.16390000  1
  Si  Si63  1  0.81520000  0.87650000  0.66390000  1
  Si  Si64  1  0.27330000  0.82780000  0.04020000  1
  Si  Si65  1  0.22670000  0.32780000  0.54020000  1
  Si  Si66  1  0.27330000  0.67220000  0.04020000  1
  Si  Si67  1  0.22670000  0.17220000  0.54020000  1
  Si  Si68  1  0.72670000  0.17220000  0.95980000  1
  Si  Si69  1  0.77330000  0.67220000  0.45980000  1
  Si  Si70  1  0.72670000  0.32780000  0.95980000  1
  Si  Si71  1  0.77330000  0.82780000  0.45980000  1
  Si  Si72  1  0.11850000  0.82790000  0.01830000  1
  Si  Si73  1  0.38150000  0.32790000  0.51830000  1
  Si  Si74  1  0.11850000  0.67210000  0.01830000  1
  Si  Si75  1  0.38150000  0.17210000  0.51830000  1
  Si  Si76  1  0.88150000  0.17210000  0.98170000  1
  Si  Si77  1  0.61850000  0.67210000  0.48170000  1
  Si  Si78  1  0.88150000  0.32790000  0.98170000  1
  Si  Si79  1  0.61850000  0.82790000  0.48170000  1
  Si  Si80  1  0.06570000  0.87940000  0.80870000  1
  Si  Si81  1  0.43430000  0.37940000  0.30870000  1
  Si  Si82  1  0.06570000  0.62060000  0.80870000  1
  Si  Si83  1  0.43430000  0.12060000  0.30870000  1
  Si  Si84  1  0.93430000  0.12060000  0.19130000  1
  Si  Si85  1  0.56570000  0.62060000  0.69130000  1
  Si  Si86  1  0.93430000  0.37940000  0.19130000  1
  Si  Si87  1  0.56570000  0.87940000  0.69130000  1
  Si  Si88  1  0.19470000  0.82880000  0.70920000  1
  Si  Si89  1  0.30530000  0.32880000  0.20920000  1
  Si  Si90  1  0.19470000  0.67120000  0.70920000  1
  Si  Si91  1  0.30530000  0.17120000  0.20920000  1
  Si  Si92  1  0.80530000  0.17120000  0.29080000  1
  Si  Si93  1  0.69470000  0.67120000  0.79080000  1
  Si  Si94  1  0.80530000  0.32880000  0.29080000  1
  Si  Si95  1  0.69470000  0.82880000  0.79080000  1
