# generated using pymatgen
data_O2
_symmetry_space_group_name_H-M   'P 1'
_cell_length_a   20.09000000
_cell_length_b   19.73800000
_cell_length_c   13.14200000
_cell_angle_alpha   90.00000000
_cell_angle_beta   90.00000000
_cell_angle_gamma   90.00000000
_symmetry_Int_Tables_number   1
_chemical_formula_structural   O2
_chemical_formula_sum   O192
_cell_volume   5211.28163164
_cell_formula_units_Z   96
loop_
 _symmetry_equiv_pos_site_id
 _symmetry_equiv_pos_as_xyz
  1  'x, y, z'
loop_
 _atom_site_type_symbol
 _atom_site_label
 _atom_site_symmetry_multiplicity
 _atom_site_fract_x
 _atom_site_fract_y
 _atom_site_fract_z
 _atom_site_occupancy
  O  O0  1  0.50120000  0.06990000  0.70180000  1
  O  O1  1  0.99880000  0.56990000  0.20180000  1
  O  O2  1  0.50120000  0.43010000  0.70180000  1
  O  O3  1  0.99880000  0.93010000  0.20180000  1
  O  O4  1  0.49880000  0.93010000  0.29820000  1
  O  O5  1  0.00120000  0.43010000  0.79820000  1
  O  O6  1  0.49880000  0.56990000  0.29820000  1
  O  O7  1  0.00120000  0.06990000  0.79820000  1
  O  O8  1  0.38750000  0.07430000  0.80080000  1
  O  O9  1  0.11250000  0.57430000  0.30080000  1
  O  O10  1  0.38750000  0.42570000  0.80080000  1
  O  O11  1  0.11250000  0.92570000  0.30080000  1
  O  O12  1  0.61250000  0.92570000  0.19920000  1
  O  O13  1  0.88750000  0.42570000  0.69920000  1
  O  O14  1  0.61250000  0.57430000  0.19920000  1
  O  O15  1  0.88750000  0.07430000  0.69920000  1
  O  O16  1  0.39950000  0.13660000  0.62510000  1
  O  O17  1  0.10050000  0.63660000  0.12510000  1
  O  O18  1  0.39950000  0.36340000  0.62510000  1
  O  O19  1  0.10050000  0.86340000  0.12510000  1
  O  O20  1  0.60050000  0.86340000  0.37490000  1
  O  O21  1  0.89950000  0.36340000  0.87490000  1
  O  O22  1  0.60050000  0.63660000  0.37490000  1
  O  O23  1  0.89950000  0.13660000  0.87490000  1
  O  O24  1  0.39720000  0.00340000  0.63260000  1
  O  O25  1  0.10280000  0.50340000  0.13260000  1
  O  O26  1  0.39720000  0.49660000  0.63260000  1
  O  O27  1  0.10280000  0.99660000  0.13260000  1
  O  O28  1  0.60280000  0.99660000  0.36740000  1
  O  O29  1  0.89720000  0.49660000  0.86740000  1
  O  O30  1  0.60280000  0.50340000  0.36740000  1
  O  O31  1  0.89720000  0.00340000  0.86740000  1
  O  O32  1  0.32900000  0.03850000  0.97220000  1
  O  O33  1  0.17100000  0.53850000  0.47220000  1
  O  O34  1  0.32900000  0.46150000  0.97220000  1
  O  O35  1  0.17100000  0.96150000  0.47220000  1
  O  O36  1  0.67100000  0.96150000  0.02780000  1
  O  O37  1  0.82900000  0.46150000  0.52780000  1
  O  O38  1  0.67100000  0.53850000  0.02780000  1
  O  O39  1  0.82900000  0.03850000  0.52780000  1
  O  O40  1  0.32970000  0.95550000  0.81550000  1
  O  O41  1  0.17030000  0.45550000  0.31550000  1
  O  O42  1  0.32970000  0.54450000  0.81550000  1
  O  O43  1  0.17030000  0.04450000  0.31550000  1
  O  O44  1  0.67030000  0.04450000  0.18450000  1
  O  O45  1  0.82970000  0.54450000  0.68450000  1
  O  O46  1  0.67030000  0.45550000  0.18450000  1
  O  O47  1  0.82970000  0.95550000  0.68450000  1
  O  O48  1  0.25710000  0.06630000  0.81060000  1
  O  O49  1  0.24290000  0.56630000  0.31060000  1
  O  O50  1  0.25710000  0.43370000  0.81060000  1
  O  O51  1  0.24290000  0.93370000  0.31060000  1
  O  O52  1  0.74290000  0.93370000  0.18940000  1
  O  O53  1  0.75710000  0.43370000  0.68940000  1
  O  O54  1  0.74290000  0.56630000  0.18940000  1
  O  O55  1  0.75710000  0.06630000  0.68940000  1
  O  O56  1  0.29100000  0.12960000  0.10600000  1
  O  O57  1  0.20900000  0.62960000  0.60600000  1
  O  O58  1  0.29100000  0.37040000  0.10600000  1
  O  O59  1  0.20900000  0.87040000  0.60600000  1
  O  O60  1  0.70900000  0.87040000  0.89400000  1
  O  O61  1  0.79100000  0.37040000  0.39400000  1
  O  O62  1  0.70900000  0.62960000  0.89400000  1
  O  O63  1  0.79100000  0.12960000  0.39400000  1
  O  O64  1  0.20340000  0.04550000  0.02750000  1
  O  O65  1  0.29660000  0.54550000  0.52750000  1
  O  O66  1  0.20340000  0.45450000  0.02750000  1
  O  O67  1  0.29660000  0.95450000  0.52750000  1
  O  O68  1  0.79660000  0.95450000  0.97250000  1
  O  O69  1  0.70340000  0.45450000  0.47250000  1
  O  O70  1  0.79660000  0.54550000  0.97250000  1
  O  O71  1  0.70340000  0.04550000  0.47250000  1
  O  O72  1  0.29360000  0.00100000  0.15640000  1
  O  O73  1  0.20640000  0.50100000  0.65640000  1
  O  O74  1  0.29360000  0.49900000  0.15640000  1
  O  O75  1  0.20640000  0.99900000  0.65640000  1
  O  O76  1  0.70640000  0.99900000  0.84360000  1
  O  O77  1  0.79360000  0.49900000  0.34360000  1
  O  O78  1  0.70640000  0.50100000  0.84360000  1
  O  O79  1  0.79360000  0.00100000  0.34360000  1
  O  O80  1  0.10750000  0.12650000  0.08830000  1
  O  O81  1  0.39250000  0.62650000  0.58830000  1
  O  O82  1  0.10750000  0.37350000  0.08830000  1
  O  O83  1  0.39250000  0.87350000  0.58830000  1
  O  O84  1  0.89250000  0.87350000  0.91170000  1
  O  O85  1  0.60750000  0.37350000  0.41170000  1
  O  O86  1  0.89250000  0.62650000  0.91170000  1
  O  O87  1  0.60750000  0.12650000  0.41170000  1
  O  O88  1  0.08460000  0.03700000  0.94430000  1
  O  O89  1  0.41540000  0.53700000  0.44430000  1
  O  O90  1  0.08460000  0.46300000  0.94430000  1
  O  O91  1  0.41540000  0.96300000  0.44430000  1
  O  O92  1  0.91540000  0.96300000  0.05570000  1
  O  O93  1  0.58460000  0.46300000  0.55570000  1
  O  O94  1  0.91540000  0.53700000  0.05570000  1
  O  O95  1  0.58460000  0.03700000  0.55570000  1
  O  O96  1  0.13010000  0.07810000  0.76700000  1
  O  O97  1  0.36990000  0.57810000  0.26700000  1
  O  O98  1  0.13010000  0.42190000  0.76700000  1
  O  O99  1  0.36990000  0.92190000  0.26700000  1
  O  O100  1  0.86990000  0.92190000  0.23300000  1
  O  O101  1  0.63010000  0.42190000  0.73300000  1
  O  O102  1  0.86990000  0.57810000  0.23300000  1
  O  O103  1  0.63010000  0.07810000  0.73300000  1
  O  O104  1  0.07280000  0.95890000  0.78320000  1
  O  O105  1  0.42720000  0.45890000  0.28320000  1
  O  O106  1  0.07280000  0.54110000  0.78320000  1
  O  O107  1  0.42720000  0.04110000  0.28320000  1
  O  O108  1  0.92720000  0.04110000  0.21680000  1
  O  O109  1  0.57280000  0.54110000  0.71680000  1
  O  O110  1  0.92720000  0.45890000  0.21680000  1
  O  O111  1  0.57280000  0.95890000  0.71680000  1
  O  O112  1  0.22010000  0.13130000  0.64560000  1
  O  O113  1  0.27990000  0.63130000  0.14560000  1
  O  O114  1  0.22010000  0.36870000  0.64560000  1
  O  O115  1  0.27990000  0.86870000  0.14560000  1
  O  O116  1  0.77990000  0.86870000  0.35440000  1
  O  O117  1  0.72010000  0.36870000  0.85440000  1
  O  O118  1  0.77990000  0.63130000  0.35440000  1
  O  O119  1  0.72010000  0.13130000  0.85440000  1
  O  O120  1  0.49110000  0.85480000  0.71690000  1
  O  O121  1  0.00890000  0.35480000  0.21690000  1
  O  O122  1  0.49110000  0.64520000  0.71690000  1
  O  O123  1  0.00890000  0.14520000  0.21690000  1
  O  O124  1  0.50890000  0.14520000  0.28310000  1
  O  O125  1  0.99110000  0.64520000  0.78310000  1
  O  O126  1  0.50890000  0.35480000  0.28310000  1
  O  O127  1  0.99110000  0.85480000  0.78310000  1
  O  O128  1  0.36810000  0.83110000  0.77430000  1
  O  O129  1  0.13190000  0.33110000  0.27430000  1
  O  O130  1  0.36810000  0.66890000  0.77430000  1
  O  O131  1  0.13190000  0.16890000  0.27430000  1
  O  O132  1  0.63190000  0.16890000  0.22570000  1
  O  O133  1  0.86810000  0.66890000  0.72570000  1
  O  O134  1  0.63190000  0.33110000  0.22570000  1
  O  O135  1  0.86810000  0.83110000  0.72570000  1
  O  O136  1  0.42630000  0.75000000  0.64310000  1
  O  O137  1  0.07370000  0.25000000  0.14310000  1
  O  O138  1  0.57370000  0.25000000  0.35690000  1
  O  O139  1  0.92630000  0.75000000  0.85690000  1
  O  O140  1  0.32170000  0.86110000  0.95610000  1
  O  O141  1  0.17830000  0.36110000  0.45610000  1
  O  O142  1  0.32170000  0.63890000  0.95610000  1
  O  O143  1  0.17830000  0.13890000  0.45610000  1
  O  O144  1  0.67830000  0.13890000  0.04390000  1
  O  O145  1  0.82170000  0.63890000  0.54390000  1
  O  O146  1  0.67830000  0.36110000  0.04390000  1
  O  O147  1  0.82170000  0.86110000  0.54390000  1
  O  O148  1  0.24100000  0.85820000  0.79900000  1
  O  O149  1  0.25900000  0.35820000  0.29900000  1
  O  O150  1  0.24100000  0.64180000  0.79900000  1
  O  O151  1  0.25900000  0.14180000  0.29900000  1
  O  O152  1  0.75900000  0.14180000  0.20100000  1
  O  O153  1  0.74100000  0.64180000  0.70100000  1
  O  O154  1  0.75900000  0.35820000  0.20100000  1
  O  O155  1  0.74100000  0.85820000  0.70100000  1
  O  O156  1  0.29430000  0.75000000  0.05790000  1
  O  O157  1  0.20570000  0.25000000  0.55790000  1
  O  O158  1  0.70570000  0.25000000  0.94210000  1
  O  O159  1  0.79430000  0.75000000  0.44210000  1
  O  O160  1  0.19760000  0.83130000  0.00030000  1
  O  O161  1  0.30240000  0.33130000  0.50030000  1
  O  O162  1  0.19760000  0.66870000  0.00030000  1
  O  O163  1  0.30240000  0.16870000  0.50030000  1
  O  O164  1  0.80240000  0.16870000  0.99970000  1
  O  O165  1  0.69760000  0.66870000  0.49970000  1
  O  O166  1  0.80240000  0.33130000  0.99970000  1
  O  O167  1  0.69760000  0.83130000  0.49970000  1
  O  O168  1  0.09480000  0.75000000  0.02050000  1
  O  O169  1  0.40520000  0.25000000  0.52050000  1
  O  O170  1  0.90520000  0.25000000  0.97950000  1
  O  O171  1  0.59480000  0.75000000  0.47950000  1
  O  O172  1  0.08090000  0.86700000  0.92750000  1
  O  O173  1  0.41910000  0.36700000  0.42750000  1
  O  O174  1  0.08090000  0.63300000  0.92750000  1
  O  O175  1  0.41910000  0.13300000  0.42750000  1
  O  O176  1  0.91910000  0.13300000  0.07250000  1
  O  O177  1  0.58090000  0.63300000  0.57250000  1
  O  O178  1  0.91910000  0.36700000  0.07250000  1
  O  O179  1  0.58090000  0.86700000  0.57250000  1
  O  O180  1  0.11770000  0.83700000  0.74060000  1
  O  O181  1  0.38230000  0.33700000  0.24060000  1
  O  O182  1  0.11770000  0.66300000  0.74060000  1
  O  O183  1  0.38230000  0.16300000  0.24060000  1
  O  O184  1  0.88230000  0.16300000  0.25940000  1
  O  O185  1  0.61770000  0.66300000  0.75940000  1
  O  O186  1  0.88230000  0.33700000  0.25940000  1
  O  O187  1  0.61770000  0.83700000  0.75940000  1
  O  O188  1  0.21160000  0.75000000  0.69130000  1
  O  O189  1  0.28840000  0.25000000  0.19130000  1
  O  O190  1  0.78840000  0.25000000  0.30870000  1
  O  O191  1  0.71160000  0.75000000  0.80870000  1
