# generated using pymatgen
data_SiO4
_symmetry_space_group_name_H-M   'P 1'
_cell_length_a   14.10400000
_cell_length_b   18.20500000
_cell_length_c   7.47700000
_cell_angle_alpha   90.00000000
_cell_angle_beta   98.98900000
_cell_angle_gamma   90.00000000
_symmetry_Int_Tables_number   1
_chemical_formula_structural   SiO4
_chemical_formula_sum   'Si1 O4'
_cell_volume   1896.24080525
_cell_formula_units_Z   1
loop_
 _symmetry_equiv_pos_site_id
 _symmetry_equiv_pos_as_xyz
  1  'x, y, z'
loop_
 _atom_site_type_symbol
 _atom_site_label
 _atom_site_symmetry_multiplicity
 _atom_site_fract_x
 _atom_site_fract_y
 _atom_site_fract_z
 _atom_site_occupancy
  Si  Si0  1  0.89180000  0.24660000  0.42290000  1
  O  O1  1  0.82550000  0.17480000  0.37720000  1
  O  O2  1  0.88920000  0.29500000  0.24240000  1
  O  O3  1  0.85090000  0.29450000  0.57490000  1
  O  O4  1  1.00000000  0.22180000  0.50000000  1
