# generated using pymatgen
data_Si
_symmetry_space_group_name_H-M   'P 1'
_cell_length_a   14.10400000
_cell_length_b   18.20500000
_cell_length_c   7.47700000
_cell_angle_alpha   90.00000000
_cell_angle_beta   98.98900000
_cell_angle_gamma   90.00000000
_symmetry_Int_Tables_number   1
_chemical_formula_structural   Si
_chemical_formula_sum   Si32
_cell_volume   1896.24080525
_cell_formula_units_Z   32
loop_
 _symmetry_equiv_pos_site_id
 _symmetry_equiv_pos_as_xyz
  1  'x, y, z'
loop_
 _atom_site_type_symbol
 _atom_site_label
 _atom_site_symmetry_multiplicity
 _atom_site_fract_x
 _atom_site_fract_y
 _atom_site_fract_z
 _atom_site_occupancy
  Si  Si0  1  0.39840000  0.84130000  0.06270000  1
  Si  Si1  1  0.89840000  0.34130000  0.06270000  1
  Si  Si2  1  0.60160000  0.84130000  0.93730000  1
  Si  Si3  1  0.10160000  0.34130000  0.93730000  1
  Si  Si4  1  0.60160000  0.15870000  0.93730000  1
  Si  Si5  1  0.10160000  0.65870000  0.93730000  1
  Si  Si6  1  0.39840000  0.15870000  0.06270000  1
  Si  Si7  1  0.89840000  0.65870000  0.06270000  1
  Si  Si8  1  0.39180000  0.74660000  0.42290000  1
  Si  Si9  1  0.89180000  0.24660000  0.42290000  1
  Si  Si10  1  0.60820000  0.74660000  0.57710000  1
  Si  Si11  1  0.10820000  0.24660000  0.57710000  1
  Si  Si12  1  0.60820000  0.25340000  0.57710000  1
  Si  Si13  1  0.10820000  0.75340000  0.57710000  1
  Si  Si14  1  0.39180000  0.25340000  0.42290000  1
  Si  Si15  1  0.89180000  0.75340000  0.42290000  1
  Si  Si16  1  0.28640000  0.84200000  0.69170000  1
  Si  Si17  1  0.78640000  0.34200000  0.69170000  1
  Si  Si18  1  0.71360000  0.84200000  0.30830000  1
  Si  Si19  1  0.21360000  0.34200000  0.30830000  1
  Si  Si20  1  0.71360000  0.15800000  0.30830000  1
  Si  Si21  1  0.21360000  0.65800000  0.30830000  1
  Si  Si22  1  0.28640000  0.15800000  0.69170000  1
  Si  Si23  1  0.78640000  0.65800000  0.69170000  1
  Si  Si24  1  0.64000000  0.00000000  0.39540000  1
  Si  Si25  1  0.14000000  0.50000000  0.39540000  1
  Si  Si26  1  0.36000000  0.00000000  0.60460000  1
  Si  Si27  1  0.86000000  0.50000000  0.60460000  1
  Si  Si28  1  0.58380000  0.00000000  0.77540000  1
  Si  Si29  1  0.08380000  0.50000000  0.77540000  1
  Si  Si30  1  0.41620000  0.00000000  0.22460000  1
  Si  Si31  1  0.91620000  0.50000000  0.22460000  1
