# generated using pymatgen
data_O2
_symmetry_space_group_name_H-M   'P 1'
_cell_length_a   14.10400000
_cell_length_b   18.20500000
_cell_length_c   7.47700000
_cell_angle_alpha   90.00000000
_cell_angle_beta   98.98900000
_cell_angle_gamma   90.00000000
_symmetry_Int_Tables_number   1
_chemical_formula_structural   O2
_chemical_formula_sum   O64
_cell_volume   1896.24080525
_cell_formula_units_Z   32
loop_
 _symmetry_equiv_pos_site_id
 _symmetry_equiv_pos_as_xyz
  1  'x, y, z'
loop_
 _atom_site_type_symbol
 _atom_site_label
 _atom_site_symmetry_multiplicity
 _atom_site_fract_x
 _atom_site_fract_y
 _atom_site_fract_z
 _atom_site_occupancy
  O  O0  1  0.64600000  0.00000000  0.61220000  1
  O  O1  1  0.14600000  0.50000000  0.61220000  1
  O  O2  1  0.35400000  0.00000000  0.38780000  1
  O  O3  1  0.85400000  0.50000000  0.38780000  1
  O  O4  1  0.69230000  0.92790000  0.33290000  1
  O  O5  1  0.19230000  0.42790000  0.33290000  1
  O  O6  1  0.30770000  0.92790000  0.66710000  1
  O  O7  1  0.80770000  0.42790000  0.66710000  1
  O  O8  1  0.30770000  0.07210000  0.66710000  1
  O  O9  1  0.80770000  0.57210000  0.66710000  1
  O  O10  1  0.69230000  0.07210000  0.33290000  1
  O  O11  1  0.19230000  0.57210000  0.33290000  1
  O  O12  1  0.52890000  0.00000000  0.30380000  1
  O  O13  1  0.02890000  0.50000000  0.30380000  1
  O  O14  1  0.47110000  0.00000000  0.69620000  1
  O  O15  1  0.97110000  0.50000000  0.69620000  1
  O  O16  1  0.60900000  0.07220000  0.89760000  1
  O  O17  1  0.10900000  0.57220000  0.89760000  1
  O  O18  1  0.39100000  0.07220000  0.10240000  1
  O  O19  1  0.89100000  0.57220000  0.10240000  1
  O  O20  1  0.39100000  0.92780000  0.10240000  1
  O  O21  1  0.89100000  0.42780000  0.10240000  1
  O  O22  1  0.60900000  0.92780000  0.89760000  1
  O  O23  1  0.10900000  0.42780000  0.89760000  1
  O  O24  1  0.32550000  0.67480000  0.37720000  1
  O  O25  1  0.82550000  0.17480000  0.37720000  1
  O  O26  1  0.67450000  0.67480000  0.62280000  1
  O  O27  1  0.17450000  0.17480000  0.62280000  1
  O  O28  1  0.67450000  0.32520000  0.62280000  1
  O  O29  1  0.17450000  0.82520000  0.62280000  1
  O  O30  1  0.32550000  0.32520000  0.37720000  1
  O  O31  1  0.82550000  0.82520000  0.37720000  1
  O  O32  1  0.38920000  0.79500000  0.24240000  1
  O  O33  1  0.88920000  0.29500000  0.24240000  1
  O  O34  1  0.61080000  0.79500000  0.75760000  1
  O  O35  1  0.11080000  0.29500000  0.75760000  1
  O  O36  1  0.61080000  0.20500000  0.75760000  1
  O  O37  1  0.11080000  0.70500000  0.75760000  1
  O  O38  1  0.38920000  0.20500000  0.24240000  1
  O  O39  1  0.88920000  0.70500000  0.24240000  1
  O  O40  1  0.35090000  0.79450000  0.57490000  1
  O  O41  1  0.85090000  0.29450000  0.57490000  1
  O  O42  1  0.64910000  0.79450000  0.42510000  1
  O  O43  1  0.14910000  0.29450000  0.42510000  1
  O  O44  1  0.64910000  0.20550000  0.42510000  1
  O  O45  1  0.14910000  0.70550000  0.42510000  1
  O  O46  1  0.35090000  0.20550000  0.57490000  1
  O  O47  1  0.85090000  0.70550000  0.57490000  1
  O  O48  1  0.50000000  0.72180000  0.50000000  1
  O  O49  1  0.00000000  0.22180000  0.50000000  1
  O  O50  1  0.50000000  0.27820000  0.50000000  1
  O  O51  1  0.00000000  0.77820000  0.50000000  1
  O  O52  1  0.31320000  0.81940000  0.90190000  1
  O  O53  1  0.81320000  0.31940000  0.90190000  1
  O  O54  1  0.68680000  0.81940000  0.09810000  1
  O  O55  1  0.18680000  0.31940000  0.09810000  1
  O  O56  1  0.68680000  0.18060000  0.09810000  1
  O  O57  1  0.18680000  0.68060000  0.09810000  1
  O  O58  1  0.31320000  0.18060000  0.90190000  1
  O  O59  1  0.81320000  0.68060000  0.90190000  1
  O  O60  1  0.50000000  0.82340000  0.00000000  1
  O  O61  1  0.00000000  0.32340000  0.00000000  1
  O  O62  1  0.50000000  0.17660000  0.00000000  1
  O  O63  1  0.00000000  0.67660000  0.00000000  1
