# generated using pymatgen
data_SiO4
_symmetry_space_group_name_H-M   'P 1'
_cell_length_a   19.46000000
_cell_length_b   9.35100000
_cell_length_c   15.10700000
_cell_angle_alpha   90.00000000
_cell_angle_beta   90.00000000
_cell_angle_gamma   90.00000000
_symmetry_Int_Tables_number   1
_chemical_formula_structural   SiO4
_chemical_formula_sum   'Si1 O4'
_cell_volume   2749.02773922
_cell_formula_units_Z   1
loop_
 _symmetry_equiv_pos_site_id
 _symmetry_equiv_pos_as_xyz
  1  'x, y, z'
loop_
 _atom_site_type_symbol
 _atom_site_label
 _atom_site_symmetry_multiplicity
 _atom_site_fract_x
 _atom_site_fract_y
 _atom_site_fract_z
 _atom_site_occupancy
  Si  Si0  1  0.41780000  0.83270000  0.00000000  1
  O  O1  1  0.38390000  0.79330000  -0.09550000  1
  O  O2  1  0.38400000  0.72980000  0.07520000  1
  O  O3  1  0.50000000  0.80250000  -0.00440000  1
  O  O4  1  0.40370000  1.00000000  0.02330000  1
