# generated using pymatgen
data_SiO4
_symmetry_space_group_name_H-M   'P 1'
_cell_length_a   19.46000000
_cell_length_b   9.35100000
_cell_length_c   15.10700000
_cell_angle_alpha   90.00000000
_cell_angle_beta   90.00000000
_cell_angle_gamma   90.00000000
_symmetry_Int_Tables_number   1
_chemical_formula_structural   SiO4
_chemical_formula_sum   'Si1 O4'
_cell_volume   2749.02773922
_cell_formula_units_Z   1
loop_
 _symmetry_equiv_pos_site_id
 _symmetry_equiv_pos_as_xyz
  1  'x, y, z'
loop_
 _atom_site_type_symbol
 _atom_site_label
 _atom_site_symmetry_multiplicity
 _atom_site_fract_x
 _atom_site_fract_y
 _atom_site_fract_z
 _atom_site_occupancy
  Si  Si0  1  0.32070000  0.32750000  0.13600000  1
  O  O1  1  0.25000000  0.25000000  0.10400000  1
  O  O2  1  0.33580000  0.28360000  0.23840000  1
  O  O3  1  0.38400000  0.27020000  0.07520000  1
  O  O4  1  0.31330000  0.50000000  0.12680000  1
