# generated using pymatgen
data_O2
_symmetry_space_group_name_H-M   'P 1'
_cell_length_a   19.46000000
_cell_length_b   9.35100000
_cell_length_c   15.10700000
_cell_angle_alpha   90.00000000
_cell_angle_beta   90.00000000
_cell_angle_gamma   90.00000000
_symmetry_Int_Tables_number   1
_chemical_formula_structural   O2
_chemical_formula_sum   O96
_cell_volume   2749.02773922
_cell_formula_units_Z   48
loop_
 _symmetry_equiv_pos_site_id
 _symmetry_equiv_pos_as_xyz
  1  'x, y, z'
loop_
 _atom_site_type_symbol
 _atom_site_label
 _atom_site_symmetry_multiplicity
 _atom_site_fract_x
 _atom_site_fract_y
 _atom_site_fract_z
 _atom_site_occupancy
  O  O0  1  0.75000000  0.75000000  0.10400000  1
  O  O1  1  0.75000000  0.25000000  0.60400000  1
  O  O2  1  0.25000000  0.25000000  0.10400000  1
  O  O3  1  0.25000000  0.75000000  0.60400000  1
  O  O4  1  0.25000000  0.75000000  0.10400000  1
  O  O5  1  0.25000000  0.25000000  0.60400000  1
  O  O6  1  0.75000000  0.25000000  0.10400000  1
  O  O7  1  0.75000000  0.75000000  0.60400000  1
  O  O8  1  0.66420000  0.71640000  0.23840000  1
  O  O9  1  0.66420000  0.21640000  0.73840000  1
  O  O10  1  0.16420000  0.21640000  0.23840000  1
  O  O11  1  0.16420000  0.71640000  0.73840000  1
  O  O12  1  0.33580000  0.71640000  0.23840000  1
  O  O13  1  0.33580000  0.21640000  0.73840000  1
  O  O14  1  0.83580000  0.21640000  0.23840000  1
  O  O15  1  0.83580000  0.71640000  0.73840000  1
  O  O16  1  0.66420000  0.28360000  0.23840000  1
  O  O17  1  0.66420000  0.78360000  0.73840000  1
  O  O18  1  0.16420000  0.78360000  0.23840000  1
  O  O19  1  0.16420000  0.28360000  0.73840000  1
  O  O20  1  0.33580000  0.28360000  0.23840000  1
  O  O21  1  0.33580000  0.78360000  0.73840000  1
  O  O22  1  0.83580000  0.78360000  0.23840000  1
  O  O23  1  0.83580000  0.28360000  0.73840000  1
  O  O24  1  0.61610000  0.79330000  0.90450000  1
  O  O25  1  0.61610000  0.29330000  0.40450000  1
  O  O26  1  0.11610000  0.29330000  0.90450000  1
  O  O27  1  0.11610000  0.79330000  0.40450000  1
  O  O28  1  0.38390000  0.79330000  0.90450000  1
  O  O29  1  0.38390000  0.29330000  0.40450000  1
  O  O30  1  0.88390000  0.29330000  0.90450000  1
  O  O31  1  0.88390000  0.79330000  0.40450000  1
  O  O32  1  0.61610000  0.20670000  0.90450000  1
  O  O33  1  0.61610000  0.70670000  0.40450000  1
  O  O34  1  0.11610000  0.70670000  0.90450000  1
  O  O35  1  0.11610000  0.20670000  0.40450000  1
  O  O36  1  0.38390000  0.20670000  0.90450000  1
  O  O37  1  0.38390000  0.70670000  0.40450000  1
  O  O38  1  0.88390000  0.70670000  0.90450000  1
  O  O39  1  0.88390000  0.20670000  0.40450000  1
  O  O40  1  0.61600000  0.77020000  0.57520000  1
  O  O41  1  0.61600000  0.27020000  0.07520000  1
  O  O42  1  0.11600000  0.27020000  0.57520000  1
  O  O43  1  0.11600000  0.77020000  0.07520000  1
  O  O44  1  0.38400000  0.77020000  0.57520000  1
  O  O45  1  0.38400000  0.27020000  0.07520000  1
  O  O46  1  0.88400000  0.27020000  0.57520000  1
  O  O47  1  0.88400000  0.77020000  0.07520000  1
  O  O48  1  0.61600000  0.22980000  0.57520000  1
  O  O49  1  0.61600000  0.72980000  0.07520000  1
  O  O50  1  0.11600000  0.72980000  0.57520000  1
  O  O51  1  0.11600000  0.22980000  0.07520000  1
  O  O52  1  0.38400000  0.22980000  0.57520000  1
  O  O53  1  0.38400000  0.72980000  0.07520000  1
  O  O54  1  0.88400000  0.72980000  0.57520000  1
  O  O55  1  0.88400000  0.22980000  0.07520000  1
  O  O56  1  0.75000000  0.75000000  0.87510000  1
  O  O57  1  0.75000000  0.25000000  0.37510000  1
  O  O58  1  0.25000000  0.25000000  0.87510000  1
  O  O59  1  0.25000000  0.75000000  0.37510000  1
  O  O60  1  0.25000000  0.75000000  0.87510000  1
  O  O61  1  0.25000000  0.25000000  0.37510000  1
  O  O62  1  0.75000000  0.25000000  0.87510000  1
  O  O63  1  0.75000000  0.75000000  0.37510000  1
  O  O64  1  0.69630000  0.00000000  0.84300000  1
  O  O65  1  0.69630000  0.50000000  0.34300000  1
  O  O66  1  0.19630000  0.50000000  0.84300000  1
  O  O67  1  0.19630000  0.00000000  0.34300000  1
  O  O68  1  0.30370000  0.00000000  0.84300000  1
  O  O69  1  0.30370000  0.50000000  0.34300000  1
  O  O70  1  0.80370000  0.50000000  0.84300000  1
  O  O71  1  0.80370000  0.00000000  0.34300000  1
  O  O72  1  0.50000000  0.80250000  0.99560000  1
  O  O73  1  0.50000000  0.30250000  0.49560000  1
  O  O74  1  0.00000000  0.30250000  0.99560000  1
  O  O75  1  0.00000000  0.80250000  0.49560000  1
  O  O76  1  0.50000000  0.19750000  0.99560000  1
  O  O77  1  0.50000000  0.69750000  0.49560000  1
  O  O78  1  0.00000000  0.69750000  0.99560000  1
  O  O79  1  0.00000000  0.19750000  0.49560000  1
  O  O80  1  0.68670000  0.00000000  0.62680000  1
  O  O81  1  0.68670000  0.50000000  0.12680000  1
  O  O82  1  0.18670000  0.50000000  0.62680000  1
  O  O83  1  0.18670000  0.00000000  0.12680000  1
  O  O84  1  0.31330000  0.00000000  0.62680000  1
  O  O85  1  0.31330000  0.50000000  0.12680000  1
  O  O86  1  0.81330000  0.50000000  0.62680000  1
  O  O87  1  0.81330000  0.00000000  0.12680000  1
  O  O88  1  0.59630000  0.00000000  0.02330000  1
  O  O89  1  0.59630000  0.50000000  0.52330000  1
  O  O90  1  0.09630000  0.50000000  0.02330000  1
  O  O91  1  0.09630000  0.00000000  0.52330000  1
  O  O92  1  0.40370000  0.00000000  0.02330000  1
  O  O93  1  0.40370000  0.50000000  0.52330000  1
  O  O94  1  0.90370000  0.50000000  0.02330000  1
  O  O95  1  0.90370000  0.00000000  0.52330000  1
