# generated using pymatgen
data_O2
_symmetry_space_group_name_H-M   'P 1'
_cell_length_a   13.67400000
_cell_length_b   13.67400000
_cell_length_c   19.69500000
_cell_angle_alpha   90.00000000
_cell_angle_beta   90.00000000
_cell_angle_gamma   120.00000000
_symmetry_Int_Tables_number   1
_chemical_formula_structural   O2
_chemical_formula_sum   O96
_cell_volume   3189.17071866
_cell_formula_units_Z   48
loop_
 _symmetry_equiv_pos_site_id
 _symmetry_equiv_pos_as_xyz
  1  'x, y, z'
loop_
 _atom_site_type_symbol
 _atom_site_label
 _atom_site_symmetry_multiplicity
 _atom_site_fract_x
 _atom_site_fract_y
 _atom_site_fract_z
 _atom_site_occupancy
  O  O0  1  0.09800000  0.19600000  0.09200000  1
  O  O1  1  0.80400000  0.90200000  0.09200000  1
  O  O2  1  0.09800000  0.90200000  0.09200000  1
  O  O3  1  0.90200000  0.80400000  0.59200000  1
  O  O4  1  0.19600000  0.09800000  0.59200000  1
  O  O5  1  0.90200000  0.09800000  0.59200000  1
  O  O6  1  0.90200000  0.80400000  0.90800000  1
  O  O7  1  0.19600000  0.09800000  0.90800000  1
  O  O8  1  0.90200000  0.09800000  0.90800000  1
  O  O9  1  0.09800000  0.19600000  0.40800000  1
  O  O10  1  0.80400000  0.90200000  0.40800000  1
  O  O11  1  0.09800000  0.90200000  0.40800000  1
  O  O12  1  0.87970000  0.12030000  0.09860000  1
  O  O13  1  0.87970000  0.75940000  0.09860000  1
  O  O14  1  0.24060000  0.12030000  0.09860000  1
  O  O15  1  0.12030000  0.87970000  0.59860000  1
  O  O16  1  0.12030000  0.24060000  0.59860000  1
  O  O17  1  0.75940000  0.87970000  0.59860000  1
  O  O18  1  0.12030000  0.87970000  0.90140000  1
  O  O19  1  0.12030000  0.24060000  0.90140000  1
  O  O20  1  0.75940000  0.87970000  0.90140000  1
  O  O21  1  0.87970000  0.12030000  0.40140000  1
  O  O22  1  0.87970000  0.75940000  0.40140000  1
  O  O23  1  0.24060000  0.12030000  0.40140000  1
  O  O24  1  0.00000000  0.25770000  0.00000000  1
  O  O25  1  0.74230000  0.74230000  0.00000000  1
  O  O26  1  0.25770000  0.00000000  0.00000000  1
  O  O27  1  0.00000000  0.74230000  0.50000000  1
  O  O28  1  0.25770000  0.25770000  0.50000000  1
  O  O29  1  0.74230000  0.00000000  0.50000000  1
  O  O30  1  0.74230000  0.00000000  0.00000000  1
  O  O31  1  0.25770000  0.25770000  0.00000000  1
  O  O32  1  0.00000000  0.74230000  0.00000000  1
  O  O33  1  0.25770000  0.00000000  0.50000000  1
  O  O34  1  0.74230000  0.74230000  0.50000000  1
  O  O35  1  0.00000000  0.25770000  0.50000000  1
  O  O36  1  0.02320000  0.33340000  0.12500000  1
  O  O37  1  0.66660000  0.68980000  0.12500000  1
  O  O38  1  0.31020000  0.97680000  0.12500000  1
  O  O39  1  0.97680000  0.66660000  0.62500000  1
  O  O40  1  0.33340000  0.31020000  0.62500000  1
  O  O41  1  0.68980000  0.02320000  0.62500000  1
  O  O42  1  0.66660000  0.97680000  0.12500000  1
  O  O43  1  0.31020000  0.33340000  0.12500000  1
  O  O44  1  0.02320000  0.68980000  0.12500000  1
  O  O45  1  0.33340000  0.02320000  0.62500000  1
  O  O46  1  0.68980000  0.66660000  0.62500000  1
  O  O47  1  0.97680000  0.31020000  0.62500000  1
  O  O48  1  0.97680000  0.66660000  0.87500000  1
  O  O49  1  0.33340000  0.31020000  0.87500000  1
  O  O50  1  0.68980000  0.02320000  0.87500000  1
  O  O51  1  0.02320000  0.33340000  0.37500000  1
  O  O52  1  0.66660000  0.68980000  0.37500000  1
  O  O53  1  0.31020000  0.97680000  0.37500000  1
  O  O54  1  0.33340000  0.02320000  0.87500000  1
  O  O55  1  0.68980000  0.66660000  0.87500000  1
  O  O56  1  0.97680000  0.31020000  0.87500000  1
  O  O57  1  0.66660000  0.97680000  0.37500000  1
  O  O58  1  0.31020000  0.33340000  0.37500000  1
  O  O59  1  0.02320000  0.68980000  0.37500000  1
  O  O60  1  0.23540000  0.47090000  0.15770000  1
  O  O61  1  0.52910000  0.76450000  0.15770000  1
  O  O62  1  0.23550000  0.76460000  0.15770000  1
  O  O63  1  0.76460000  0.52910000  0.65770000  1
  O  O64  1  0.47090000  0.23550000  0.65770000  1
  O  O65  1  0.76450000  0.23540000  0.65770000  1
  O  O66  1  0.76460000  0.52910000  0.84230000  1
  O  O67  1  0.47090000  0.23550000  0.84230000  1
  O  O68  1  0.76450000  0.23540000  0.84230000  1
  O  O69  1  0.23540000  0.47090000  0.34230000  1
  O  O70  1  0.52910000  0.76450000  0.34230000  1
  O  O71  1  0.23550000  0.76460000  0.34230000  1
  O  O72  1  0.33250000  0.40850000  0.25000000  1
  O  O73  1  0.59150000  0.92400000  0.25000000  1
  O  O74  1  0.07600000  0.66750000  0.25000000  1
  O  O75  1  0.66750000  0.59150000  0.75000000  1
  O  O76  1  0.40850000  0.07600000  0.75000000  1
  O  O77  1  0.92400000  0.33250000  0.75000000  1
  O  O78  1  0.59150000  0.66750000  0.25000000  1
  O  O79  1  0.07600000  0.40850000  0.25000000  1
  O  O80  1  0.33250000  0.92400000  0.25000000  1
  O  O81  1  0.40850000  0.33250000  0.75000000  1
  O  O82  1  0.92400000  0.59150000  0.75000000  1
  O  O83  1  0.66750000  0.07600000  0.75000000  1
  O  O84  1  0.45370000  0.54630000  0.15180000  1
  O  O85  1  0.45370000  0.90740000  0.15180000  1
  O  O86  1  0.09260000  0.54630000  0.15180000  1
  O  O87  1  0.54630000  0.45370000  0.65180000  1
  O  O88  1  0.54630000  0.09260000  0.65180000  1
  O  O89  1  0.90740000  0.45370000  0.65180000  1
  O  O90  1  0.54630000  0.45370000  0.84820000  1
  O  O91  1  0.54630000  0.09260000  0.84820000  1
  O  O92  1  0.90740000  0.45370000  0.84820000  1
  O  O93  1  0.45370000  0.54630000  0.34820000  1
  O  O94  1  0.45370000  0.90740000  0.34820000  1
  O  O95  1  0.09260000  0.54630000  0.34820000  1
