# generated using pymatgen
data_SiO4
_symmetry_space_group_name_H-M   'P 1'
_cell_length_a   13.67400000
_cell_length_b   13.67400000
_cell_length_c   19.69500000
_cell_angle_alpha   90.00000000
_cell_angle_beta   90.00000000
_cell_angle_gamma   120.00000000
_symmetry_Int_Tables_number   1
_chemical_formula_structural   SiO4
_chemical_formula_sum   'Si1 O4'
_cell_volume   3189.17071866
_cell_formula_units_Z   1
loop_
 _symmetry_equiv_pos_site_id
 _symmetry_equiv_pos_as_xyz
  1  'x, y, z'
loop_
 _atom_site_type_symbol
 _atom_site_label
 _atom_site_symmetry_multiplicity
 _atom_site_fract_x
 _atom_site_fract_y
 _atom_site_fract_z
 _atom_site_occupancy
  Si  Si0  1  0.99970000  0.22650000  0.57880000  1
  O  O1  1  0.90200000  0.09800000  0.59200000  1
  O  O2  1  1.12030000  0.24060000  0.59860000  1
  O  O3  1  1.00000000  0.25770000  0.50000000  1
  O  O4  1  0.97680000  0.31020000  0.62500000  1
