# generated using pymatgen
data_SiO4
_symmetry_space_group_name_H-M   'P 1'
_cell_length_a   13.67400000
_cell_length_b   13.67400000
_cell_length_c   19.69500000
_cell_angle_alpha   90.00000000
_cell_angle_beta   90.00000000
_cell_angle_gamma   120.00000000
_symmetry_Int_Tables_number   1
_chemical_formula_structural   SiO4
_chemical_formula_sum   'Si1 O4'
_cell_volume   3189.17071866
_cell_formula_units_Z   1
loop_
 _symmetry_equiv_pos_site_id
 _symmetry_equiv_pos_as_xyz
  1  'x, y, z'
loop_
 _atom_site_type_symbol
 _atom_site_label
 _atom_site_symmetry_multiplicity
 _atom_site_fract_x
 _atom_site_fract_y
 _atom_site_fract_z
 _atom_site_occupancy
  Si  Si0  1  0.00030000  0.77350000  0.42120000  1
  O  O1  1  0.09800000  0.90200000  0.40800000  1
  O  O2  1  -0.12030000  0.75940000  0.40140000  1
  O  O3  1  0.00000000  0.74230000  0.50000000  1
  O  O4  1  0.02320000  0.68980000  0.37500000  1
