# generated using pymatgen
data_SiO4
_symmetry_space_group_name_H-M   'P 1'
_cell_length_a   13.05000000
_cell_length_b   21.85300000
_cell_length_c   13.57300000
_cell_angle_alpha   90.00000000
_cell_angle_beta   102.90500000
_cell_angle_gamma   90.00000000
_symmetry_Int_Tables_number   1
_chemical_formula_structural   SiO4
_chemical_formula_sum   'Si1 O4'
_cell_volume   3773.00148390
_cell_formula_units_Z   1
loop_
 _symmetry_equiv_pos_site_id
 _symmetry_equiv_pos_as_xyz
  1  'x, y, z'
loop_
 _atom_site_type_symbol
 _atom_site_label
 _atom_site_symmetry_multiplicity
 _atom_site_fract_x
 _atom_site_fract_y
 _atom_site_fract_z
 _atom_site_occupancy
  Si  Si0  1  0.64630000  0.16690000  0.44760000  1
  O  O1  1  0.60320000  0.15880000  0.32770000  1
  O  O2  1  0.66750000  0.23800000  0.47630000  1
  O  O3  1  0.56040000  0.14120000  0.50590000  1
  O  O4  1  0.75420000  0.12920000  0.48420000  1
