# generated using pymatgen
data_SiO4
_symmetry_space_group_name_H-M   'P 1'
_cell_length_a   13.05000000
_cell_length_b   21.85300000
_cell_length_c   13.57300000
_cell_angle_alpha   90.00000000
_cell_angle_beta   102.90500000
_cell_angle_gamma   90.00000000
_symmetry_Int_Tables_number   1
_chemical_formula_structural   SiO4
_chemical_formula_sum   'Si1 O4'
_cell_volume   3773.00148390
_cell_formula_units_Z   1
loop_
 _symmetry_equiv_pos_site_id
 _symmetry_equiv_pos_as_xyz
  1  'x, y, z'
loop_
 _atom_site_type_symbol
 _atom_site_label
 _atom_site_symmetry_multiplicity
 _atom_site_fract_x
 _atom_site_fract_y
 _atom_site_fract_z
 _atom_site_occupancy
  Si  Si0  1  0.95460000  0.91800000  0.06330000  1
  O  O1  1  1.06320000  0.91770000  0.02570000  1
  O  O2  1  0.97780000  0.93340000  0.18220000  1
  O  O3  1  0.89930000  0.85190000  0.04390000  1
  O  O4  1  0.87790000  0.96930000  0.00090000  1
