# generated using pymatgen
data_SiO4
_symmetry_space_group_name_H-M   'P 1'
_cell_length_a   13.05000000
_cell_length_b   21.85300000
_cell_length_c   13.57300000
_cell_angle_alpha   90.00000000
_cell_angle_beta   102.90500000
_cell_angle_gamma   90.00000000
_symmetry_Int_Tables_number   1
_chemical_formula_structural   SiO4
_chemical_formula_sum   'Si1 O4'
_cell_volume   3773.00148390
_cell_formula_units_Z   1
loop_
 _symmetry_equiv_pos_site_id
 _symmetry_equiv_pos_as_xyz
  1  'x, y, z'
loop_
 _atom_site_type_symbol
 _atom_site_label
 _atom_site_symmetry_multiplicity
 _atom_site_fract_x
 _atom_site_fract_y
 _atom_site_fract_z
 _atom_site_occupancy
  Si  Si0  1  0.15050000  0.49420000  0.35130000  1
  O  O1  1  0.23770000  0.44880000  0.41550000  1
  O  O2  1  0.16300000  0.56020000  0.40530000  1
  O  O3  1  0.03450000  0.46750000  0.34570000  1
  O  O4  1  0.17160000  0.50130000  0.23950000  1
