# generated using pymatgen
data_Si
_symmetry_space_group_name_H-M   'P 1'
_cell_length_a   13.05000000
_cell_length_b   21.85300000
_cell_length_c   13.57300000
_cell_angle_alpha   90.00000000
_cell_angle_beta   102.90500000
_cell_angle_gamma   90.00000000
_symmetry_Int_Tables_number   1
_chemical_formula_structural   Si
_chemical_formula_sum   Si64
_cell_volume   3773.00148390
_cell_formula_units_Z   64
loop_
 _symmetry_equiv_pos_site_id
 _symmetry_equiv_pos_as_xyz
  1  'x, y, z'
loop_
 _atom_site_type_symbol
 _atom_site_label
 _atom_site_symmetry_multiplicity
 _atom_site_fract_x
 _atom_site_fract_y
 _atom_site_fract_z
 _atom_site_occupancy
  Si  Si0  1  0.59620000  0.16370000  0.20810000  1
  Si  Si1  1  0.90380000  0.66370000  0.29190000  1
  Si  Si2  1  0.40380000  0.83630000  0.79190000  1
  Si  Si3  1  0.09620000  0.33630000  0.70810000  1
  Si  Si4  1  0.64630000  0.16690000  0.44760000  1
  Si  Si5  1  0.85370000  0.66690000  0.05240000  1
  Si  Si6  1  0.35370000  0.83310000  0.55240000  1
  Si  Si7  1  0.14630000  0.33310000  0.94760000  1
  Si  Si8  1  0.69510000  0.56990000  0.95310000  1
  Si  Si9  1  0.80490000  0.06990000  0.54690000  1
  Si  Si10  1  0.30490000  0.43010000  0.04690000  1
  Si  Si11  1  0.19510000  0.93010000  0.45310000  1
  Si  Si12  1  0.65510000  0.49280000  0.11530000  1
  Si  Si13  1  0.84490000  0.99280000  0.38470000  1
  Si  Si14  1  0.34490000  0.50720000  0.88470000  1
  Si  Si15  1  0.15510000  0.00720000  0.61530000  1
  Si  Si16  1  0.65160000  0.30250000  0.21370000  1
  Si  Si17  1  0.84840000  0.80250000  0.28630000  1
  Si  Si18  1  0.34840000  0.69750000  0.78630000  1
  Si  Si19  1  0.15160000  0.19750000  0.71370000  1
  Si  Si20  1  0.69480000  0.30630000  0.44620000  1
  Si  Si21  1  0.80520000  0.80630000  0.05380000  1
  Si  Si22  1  0.30520000  0.69370000  0.55380000  1
  Si  Si23  1  0.19480000  0.19370000  0.94620000  1
  Si  Si24  1  0.49980000  0.41120000  0.20190000  1
  Si  Si25  1  0.00020000  0.91120000  0.29810000  1
  Si  Si26  1  0.50020000  0.58880000  0.79810000  1
  Si  Si27  1  0.99980000  0.08880000  0.70190000  1
  Si  Si28  1  0.46940000  0.09610000  0.52480000  1
  Si  Si29  1  0.03060000  0.59610000  0.97520000  1
  Si  Si30  1  0.53060000  0.90390000  0.47520000  1
  Si  Si31  1  0.96940000  0.40390000  0.02480000  1
  Si  Si32  1  0.76300000  0.55270000  0.32410000  1
  Si  Si33  1  0.73700000  0.05270000  0.17590000  1
  Si  Si34  1  0.23700000  0.44730000  0.67590000  1
  Si  Si35  1  0.26300000  0.94730000  0.82410000  1
  Si  Si36  1  0.37350000  0.00260000  0.38090000  1
  Si  Si37  1  0.12650000  0.50260000  0.11910000  1
  Si  Si38  1  0.62650000  0.99740000  0.61910000  1
  Si  Si39  1  0.87350000  0.49740000  0.88090000  1
  Si  Si40  1  0.15050000  0.49420000  0.35130000  1
  Si  Si41  1  0.34950000  0.99420000  0.14870000  1
  Si  Si42  1  0.84950000  0.50580000  0.64870000  1
  Si  Si43  1  0.65050000  0.00580000  0.85130000  1
  Si  Si44  1  0.80930000  0.38590000  0.14960000  1
  Si  Si45  1  0.69070000  0.88590000  0.35040000  1
  Si  Si46  1  0.19070000  0.61410000  0.85040000  1
  Si  Si47  1  0.30930000  0.11410000  0.64960000  1
  Si  Si48  1  0.54540000  0.41800000  0.43670000  1
  Si  Si49  1  0.95460000  0.91800000  0.06330000  1
  Si  Si50  1  0.45460000  0.58200000  0.56330000  1
  Si  Si51  1  0.04540000  0.08200000  0.93670000  1
  Si  Si52  1  0.89040000  0.38120000  0.55470000  1
  Si  Si53  1  0.60960000  0.88120000  0.94530000  1
  Si  Si54  1  0.10960000  0.61880000  0.44530000  1
  Si  Si55  1  0.39040000  0.11880000  0.05470000  1
  Si  Si56  1  0.34460000  0.45970000  0.49970000  1
  Si  Si57  1  0.15540000  0.95970000  0.00030000  1
  Si  Si58  1  0.65540000  0.54030000  0.50030000  1
  Si  Si59  1  0.84460000  0.04030000  0.99970000  1
  Si  Si60  1  0.92230000  0.44320000  0.36000000  1
  Si  Si61  1  0.57770000  0.94320000  0.14000000  1
  Si  Si62  1  0.07770000  0.55680000  0.64000000  1
  Si  Si63  1  0.42230000  0.05680000  0.86000000  1
