# generated using pymatgen
data_O2
_symmetry_space_group_name_H-M   'P 1'
_cell_length_a   13.05000000
_cell_length_b   21.85300000
_cell_length_c   13.57300000
_cell_angle_alpha   90.00000000
_cell_angle_beta   102.90500000
_cell_angle_gamma   90.00000000
_symmetry_Int_Tables_number   1
_chemical_formula_structural   O2
_chemical_formula_sum   O128
_cell_volume   3773.00148390
_cell_formula_units_Z   64
loop_
 _symmetry_equiv_pos_site_id
 _symmetry_equiv_pos_as_xyz
  1  'x, y, z'
loop_
 _atom_site_type_symbol
 _atom_site_label
 _atom_site_symmetry_multiplicity
 _atom_site_fract_x
 _atom_site_fract_y
 _atom_site_fract_z
 _atom_site_occupancy
  O  O0  1  0.62150000  0.53460000  0.01550000  1
  O  O1  1  0.87850000  0.03460000  0.48450000  1
  O  O2  1  0.37850000  0.46540000  0.98450000  1
  O  O3  1  0.12150000  0.96540000  0.51550000  1
  O  O4  1  0.60320000  0.15880000  0.32770000  1
  O  O5  1  0.89680000  0.65880000  0.17230000  1
  O  O6  1  0.39680000  0.84120000  0.67230000  1
  O  O7  1  0.10320000  0.34120000  0.82770000  1
  O  O8  1  0.86800000  0.40220000  0.26390000  1
  O  O9  1  0.63200000  0.90220000  0.23610000  1
  O  O10  1  0.13200000  0.59780000  0.73610000  1
  O  O11  1  0.36800000  0.09780000  0.76390000  1
  O  O12  1  0.66750000  0.23800000  0.47630000  1
  O  O13  1  0.83250000  0.73800000  0.02370000  1
  O  O14  1  0.33250000  0.76200000  0.52370000  1
  O  O15  1  0.16750000  0.26200000  0.97630000  1
  O  O16  1  0.56040000  0.14120000  0.50590000  1
  O  O17  1  0.93960000  0.64120000  0.99410000  1
  O  O18  1  0.43960000  0.85880000  0.49410000  1
  O  O19  1  0.06040000  0.35880000  0.00590000  1
  O  O20  1  0.73040000  0.32910000  0.14830000  1
  O  O21  1  0.76960000  0.82910000  0.35170000  1
  O  O22  1  0.26960000  0.67090000  0.85170000  1
  O  O23  1  0.23040000  0.17090000  0.64830000  1
  O  O24  1  0.74220000  0.44410000  0.09850000  1
  O  O25  1  0.75780000  0.94410000  0.40150000  1
  O  O26  1  0.25780000  0.55590000  0.90150000  1
  O  O27  1  0.24220000  0.05590000  0.59850000  1
  O  O28  1  0.62180000  0.23290000  0.18080000  1
  O  O29  1  0.87820000  0.73290000  0.31920000  1
  O  O30  1  0.37820000  0.76710000  0.81920000  1
  O  O31  1  0.12180000  0.26710000  0.68080000  1
  O  O32  1  0.43680000  0.41770000  0.47430000  1
  O  O33  1  0.06320000  0.91770000  0.02570000  1
  O  O34  1  0.56320000  0.58230000  0.52570000  1
  O  O35  1  0.93680000  0.08230000  0.97430000  1
  O  O36  1  0.93890000  0.40190000  0.46070000  1
  O  O37  1  0.56110000  0.90190000  0.03930000  1
  O  O38  1  0.06110000  0.59810000  0.53930000  1
  O  O39  1  0.43890000  0.09810000  0.96070000  1
  O  O40  1  0.39440000  0.13190000  0.58500000  1
  O  O41  1  0.10560000  0.63190000  0.91500000  1
  O  O42  1  0.60560000  0.86810000  0.41500000  1
  O  O43  1  0.89440000  0.36810000  0.08500000  1
  O  O44  1  0.55400000  0.45770000  0.13680000  1
  O  O45  1  0.94600000  0.95770000  0.36320000  1
  O  O46  1  0.44600000  0.54230000  0.86320000  1
  O  O47  1  0.05400000  0.04230000  0.63680000  1
  O  O48  1  0.62510000  0.59020000  0.84470000  1
  O  O49  1  0.87490000  0.09020000  0.65530000  1
  O  O50  1  0.37490000  0.40980000  0.15530000  1
  O  O51  1  0.12510000  0.90980000  0.34470000  1
  O  O52  1  0.75420000  0.12920000  0.48420000  1
  O  O53  1  0.74580000  0.62920000  0.01580000  1
  O  O54  1  0.24580000  0.87080000  0.51580000  1
  O  O55  1  0.25420000  0.37080000  0.98420000  1
  O  O56  1  0.52220000  0.43340000  0.31780000  1
  O  O57  1  0.97780000  0.93340000  0.18220000  1
  O  O58  1  0.47780000  0.56660000  0.68220000  1
  O  O59  1  0.02220000  0.06660000  0.81780000  1
  O  O60  1  0.40110000  0.07180000  0.41820000  1
  O  O61  1  0.09890000  0.57180000  0.08180000  1
  O  O62  1  0.59890000  0.92820000  0.58180000  1
  O  O63  1  0.90110000  0.42820000  0.91820000  1
  O  O64  1  0.70500000  0.53580000  0.20990000  1
  O  O65  1  0.79500000  0.03580000  0.29010000  1
  O  O66  1  0.29500000  0.46420000  0.79010000  1
  O  O67  1  0.20500000  0.96420000  0.70990000  1
  O  O68  1  0.67980000  0.11800000  0.17600000  1
  O  O69  1  0.82020000  0.61800000  0.32400000  1
  O  O70  1  0.32020000  0.88200000  0.82400000  1
  O  O71  1  0.17980000  0.38200000  0.67600000  1
  O  O72  1  0.48050000  0.14530000  0.14550000  1
  O  O73  1  0.01950000  0.64530000  0.35450000  1
  O  O74  1  0.51950000  0.85470000  0.85450000  1
  O  O75  1  0.98050000  0.35470000  0.64550000  1
  O  O76  1  0.60070000  0.35190000  0.45610000  1
  O  O77  1  0.89930000  0.85190000  0.04390000  1
  O  O78  1  0.39930000  0.64810000  0.54390000  1
  O  O79  1  0.10070000  0.14810000  0.95610000  1
  O  O80  1  0.52140000  0.03840000  0.59130000  1
  O  O81  1  0.97860000  0.53840000  0.90870000  1
  O  O82  1  0.47860000  0.96160000  0.40870000  1
  O  O83  1  0.02140000  0.46160000  0.09130000  1
  O  O84  1  0.23770000  0.44880000  0.41550000  1
  O  O85  1  0.26230000  0.94880000  0.08450000  1
  O  O86  1  0.76230000  0.55120000  0.58450000  1
  O  O87  1  0.73770000  0.05120000  0.91550000  1
  O  O88  1  0.78720000  0.52460000  0.93720000  1
  O  O89  1  0.71280000  0.02460000  0.56280000  1
  O  O90  1  0.21280000  0.47540000  0.06280000  1
  O  O91  1  0.28720000  0.97540000  0.43720000  1
  O  O92  1  0.67590000  0.55810000  0.39120000  1
  O  O93  1  0.82410000  0.05810000  0.10880000  1
  O  O94  1  0.32410000  0.44190000  0.60880000  1
  O  O95  1  0.17590000  0.94190000  0.89120000  1
  O  O96  1  0.16300000  0.56020000  0.40530000  1
  O  O97  1  0.33700000  0.06020000  0.09470000  1
  O  O98  1  0.83700000  0.43980000  0.59470000  1
  O  O99  1  0.66300000  0.93980000  0.90530000  1
  O  O100  1  0.70920000  0.30560000  0.33150000  1
  O  O101  1  0.79080000  0.80560000  0.16850000  1
  O  O102  1  0.29080000  0.69440000  0.66850000  1
  O  O103  1  0.20920000  0.19440000  0.83150000  1
  O  O104  1  0.54650000  0.34350000  0.19510000  1
  O  O105  1  0.95350000  0.84350000  0.30490000  1
  O  O106  1  0.45350000  0.65650000  0.80490000  1
  O  O107  1  0.04650000  0.15650000  0.69510000  1
  O  O108  1  0.84760000  0.50060000  0.36920000  1
  O  O109  1  0.65240000  0.00060000  0.13080000  1
  O  O110  1  0.15240000  0.49940000  0.63080000  1
  O  O111  1  0.34760000  0.99940000  0.86920000  1
  O  O112  1  0.03450000  0.46750000  0.34570000  1
  O  O113  1  0.46550000  0.96750000  0.15430000  1
  O  O114  1  0.96550000  0.53250000  0.65430000  1
  O  O115  1  0.53450000  0.03250000  0.84570000  1
  O  O116  1  0.32840000  0.00130000  0.26050000  1
  O  O117  1  0.17160000  0.50130000  0.23950000  1
  O  O118  1  0.67160000  0.99870000  0.73950000  1
  O  O119  1  0.82840000  0.49870000  0.76050000  1
  O  O120  1  0.80260000  0.32900000  0.51940000  1
  O  O121  1  0.69740000  0.82900000  0.98060000  1
  O  O122  1  0.19740000  0.67100000  0.48060000  1
  O  O123  1  0.30260000  0.17100000  0.01940000  1
  O  O124  1  0.62210000  0.46930000  0.49910000  1
  O  O125  1  0.87790000  0.96930000  0.00090000  1
  O  O126  1  0.37790000  0.53070000  0.50090000  1
  O  O127  1  0.12210000  0.03070000  0.99910000  1
