# generated using pymatgen
data_SiO4
_symmetry_space_group_name_H-M   'P 1'
_cell_length_a   20.14370000
_cell_length_b   14.07230000
_cell_length_c   12.52230000
_cell_angle_alpha   90.00000000
_cell_angle_beta   115.65100000
_cell_angle_gamma   90.00000000
_symmetry_Int_Tables_number   1
_chemical_formula_structural   SiO4
_chemical_formula_sum   'Si1 O4'
_cell_volume   3199.84471105
_cell_formula_units_Z   1
loop_
 _symmetry_equiv_pos_site_id
 _symmetry_equiv_pos_as_xyz
  1  'x, y, z'
loop_
 _atom_site_type_symbol
 _atom_site_label
 _atom_site_symmetry_multiplicity
 _atom_site_fract_x
 _atom_site_fract_y
 _atom_site_fract_z
 _atom_site_occupancy
  Si  Si0  1  0.68190000  0.00000000  0.42330000  1
  O  O1  1  0.63450000  0.09370000  0.41690000  1
  O  O2  1  0.63450000  -0.09370000  0.41690000  1
  O  O3  1  0.70560000  0.00000000  0.31590000  1
  O  O4  1  0.75430000  0.00000000  0.54790000  1
