# generated using pymatgen
data_O2
_symmetry_space_group_name_H-M   'P 1'
_cell_length_a   20.14370000
_cell_length_b   14.07230000
_cell_length_c   12.52230000
_cell_angle_alpha   90.00000000
_cell_angle_beta   115.65100000
_cell_angle_gamma   90.00000000
_symmetry_Int_Tables_number   1
_chemical_formula_structural   O2
_chemical_formula_sum   O120
_cell_volume   3199.84471105
_cell_formula_units_Z   60
loop_
 _symmetry_equiv_pos_site_id
 _symmetry_equiv_pos_as_xyz
  1  'x, y, z'
loop_
 _atom_site_type_symbol
 _atom_site_label
 _atom_site_symmetry_multiplicity
 _atom_site_fract_x
 _atom_site_fract_y
 _atom_site_fract_z
 _atom_site_occupancy
  O  O0  1  0.82700000  0.90620000  0.74500000  1
  O  O1  1  0.32700000  0.40620000  0.74500000  1
  O  O2  1  0.17300000  0.90620000  0.25500000  1
  O  O3  1  0.67300000  0.40620000  0.25500000  1
  O  O4  1  0.17300000  0.09380000  0.25500000  1
  O  O5  1  0.67300000  0.59380000  0.25500000  1
  O  O6  1  0.82700000  0.09380000  0.74500000  1
  O  O7  1  0.32700000  0.59380000  0.74500000  1
  O  O8  1  0.86880000  0.73090000  0.72830000  1
  O  O9  1  0.36880000  0.23090000  0.72830000  1
  O  O10  1  0.13120000  0.73090000  0.27170000  1
  O  O11  1  0.63120000  0.23090000  0.27170000  1
  O  O12  1  0.13120000  0.26910000  0.27170000  1
  O  O13  1  0.63120000  0.76910000  0.27170000  1
  O  O14  1  0.86880000  0.26910000  0.72830000  1
  O  O15  1  0.36880000  0.76910000  0.72830000  1
  O  O16  1  0.84370000  0.78100000  0.90900000  1
  O  O17  1  0.34370000  0.28100000  0.90900000  1
  O  O18  1  0.15630000  0.78100000  0.09100000  1
  O  O19  1  0.65630000  0.28100000  0.09100000  1
  O  O20  1  0.15630000  0.21900000  0.09100000  1
  O  O21  1  0.65630000  0.71900000  0.09100000  1
  O  O22  1  0.84370000  0.21900000  0.90900000  1
  O  O23  1  0.34370000  0.71900000  0.90900000  1
  O  O24  1  0.73320000  0.76440000  0.69810000  1
  O  O25  1  0.23320000  0.26440000  0.69810000  1
  O  O26  1  0.26680000  0.76440000  0.30190000  1
  O  O27  1  0.76680000  0.26440000  0.30190000  1
  O  O28  1  0.26680000  0.23560000  0.30190000  1
  O  O29  1  0.76680000  0.73560000  0.30190000  1
  O  O30  1  0.73320000  0.23560000  0.69810000  1
  O  O31  1  0.23320000  0.73560000  0.69810000  1
  O  O32  1  0.39320000  0.24560000  0.13520000  1
  O  O33  1  0.89320000  0.74560000  0.13520000  1
  O  O34  1  0.60680000  0.24560000  0.86480000  1
  O  O35  1  0.10680000  0.74560000  0.86480000  1
  O  O36  1  0.60680000  0.75440000  0.86480000  1
  O  O37  1  0.10680000  0.25440000  0.86480000  1
  O  O38  1  0.39320000  0.75440000  0.13520000  1
  O  O39  1  0.89320000  0.25440000  0.13520000  1
  O  O40  1  0.39740000  0.09280000  0.25780000  1
  O  O41  1  0.89740000  0.59280000  0.25780000  1
  O  O42  1  0.60260000  0.09280000  0.74220000  1
  O  O43  1  0.10260000  0.59280000  0.74220000  1
  O  O44  1  0.60260000  0.90720000  0.74220000  1
  O  O45  1  0.10260000  0.40720000  0.74220000  1
  O  O46  1  0.39740000  0.90720000  0.25780000  1
  O  O47  1  0.89740000  0.40720000  0.25780000  1
  O  O48  1  0.40640000  0.26160000  0.35270000  1
  O  O49  1  0.90640000  0.76160000  0.35270000  1
  O  O50  1  0.59360000  0.26160000  0.64730000  1
  O  O51  1  0.09360000  0.76160000  0.64730000  1
  O  O52  1  0.59360000  0.73840000  0.64730000  1
  O  O53  1  0.09360000  0.23840000  0.64730000  1
  O  O54  1  0.40640000  0.73840000  0.35270000  1
  O  O55  1  0.90640000  0.23840000  0.35270000  1
  O  O56  1  0.51670000  0.19820000  0.31530000  1
  O  O57  1  0.01670000  0.69820000  0.31530000  1
  O  O58  1  0.48330000  0.19820000  0.68470000  1
  O  O59  1  0.98330000  0.69820000  0.68470000  1
  O  O60  1  0.48330000  0.80180000  0.68470000  1
  O  O61  1  0.98330000  0.30180000  0.68470000  1
  O  O62  1  0.51670000  0.80180000  0.31530000  1
  O  O63  1  0.01670000  0.30180000  0.31530000  1
  O  O64  1  0.17390000  0.90730000  0.94970000  1
  O  O65  1  0.67390000  0.40730000  0.94970000  1
  O  O66  1  0.82610000  0.90730000  0.05030000  1
  O  O67  1  0.32610000  0.40730000  0.05030000  1
  O  O68  1  0.82610000  0.09270000  0.05030000  1
  O  O69  1  0.32610000  0.59270000  0.05030000  1
  O  O70  1  0.17390000  0.09270000  0.94970000  1
  O  O71  1  0.67390000  0.59270000  0.94970000  1
  O  O72  1  0.25000000  0.75000000  0.00000000  1
  O  O73  1  0.75000000  0.25000000  0.00000000  1
  O  O74  1  0.75000000  0.75000000  0.00000000  1
  O  O75  1  0.25000000  0.25000000  0.00000000  1
  O  O76  1  0.17390000  0.90660000  0.64450000  1
  O  O77  1  0.67390000  0.40660000  0.64450000  1
  O  O78  1  0.82610000  0.90660000  0.35550000  1
  O  O79  1  0.32610000  0.40660000  0.35550000  1
  O  O80  1  0.82610000  0.09340000  0.35550000  1
  O  O81  1  0.32610000  0.59340000  0.35550000  1
  O  O82  1  0.17390000  0.09340000  0.64450000  1
  O  O83  1  0.67390000  0.59340000  0.64450000  1
  O  O84  1  0.13780000  0.77350000  0.47970000  1
  O  O85  1  0.63780000  0.27350000  0.47970000  1
  O  O86  1  0.86220000  0.77350000  0.52030000  1
  O  O87  1  0.36220000  0.27350000  0.52030000  1
  O  O88  1  0.86220000  0.22650000  0.52030000  1
  O  O89  1  0.36220000  0.72650000  0.52030000  1
  O  O90  1  0.13780000  0.22650000  0.47970000  1
  O  O91  1  0.63780000  0.72650000  0.47970000  1
  O  O92  1  0.13450000  0.59370000  0.41690000  1
  O  O93  1  0.63450000  0.09370000  0.41690000  1
  O  O94  1  0.86550000  0.59370000  0.58310000  1
  O  O95  1  0.36550000  0.09370000  0.58310000  1
  O  O96  1  0.86550000  0.40630000  0.58310000  1
  O  O97  1  0.36550000  0.90630000  0.58310000  1
  O  O98  1  0.13450000  0.40630000  0.41690000  1
  O  O99  1  0.63450000  0.90630000  0.41690000  1
  O  O100  1  0.70560000  0.00000000  0.31590000  1
  O  O101  1  0.20560000  0.50000000  0.31590000  1
  O  O102  1  0.29440000  0.00000000  0.68410000  1
  O  O103  1  0.79440000  0.50000000  0.68410000  1
  O  O104  1  0.75670000  0.00000000  0.15430000  1
  O  O105  1  0.25670000  0.50000000  0.15430000  1
  O  O106  1  0.24330000  0.00000000  0.84570000  1
  O  O107  1  0.74330000  0.50000000  0.84570000  1
  O  O108  1  0.79330000  0.50000000  0.28680000  1
  O  O109  1  0.29330000  0.00000000  0.28680000  1
  O  O110  1  0.20670000  0.50000000  0.71320000  1
  O  O111  1  0.70670000  0.00000000  0.71320000  1
  O  O112  1  0.74570000  0.50000000  0.45210000  1
  O  O113  1  0.24570000  0.00000000  0.45210000  1
  O  O114  1  0.25430000  0.50000000  0.54790000  1
  O  O115  1  0.75430000  0.00000000  0.54790000  1
  O  O116  1  0.79630000  0.50000000  0.07820000  1
  O  O117  1  0.29630000  0.00000000  0.07820000  1
  O  O118  1  0.20370000  0.50000000  0.92180000  1
  O  O119  1  0.70370000  0.00000000  0.92180000  1
