# generated using pymatgen
data_Si
_symmetry_space_group_name_H-M   'P 1'
_cell_length_a   20.14370000
_cell_length_b   14.07230000
_cell_length_c   12.52230000
_cell_angle_alpha   90.00000000
_cell_angle_beta   115.65100000
_cell_angle_gamma   90.00000000
_symmetry_Int_Tables_number   1
_chemical_formula_structural   Si
_chemical_formula_sum   Si60
_cell_volume   3199.84471105
_cell_formula_units_Z   60
loop_
 _symmetry_equiv_pos_site_id
 _symmetry_equiv_pos_as_xyz
  1  'x, y, z'
loop_
 _atom_site_type_symbol
 _atom_site_label
 _atom_site_symmetry_multiplicity
 _atom_site_fract_x
 _atom_site_fract_y
 _atom_site_fract_z
 _atom_site_occupancy
  Si  Si0  1  0.81800000  0.79560000  0.76920000  1
  Si  Si1  1  0.31800000  0.29560000  0.76920000  1
  Si  Si2  1  0.18200000  0.79560000  0.23080000  1
  Si  Si3  1  0.68200000  0.29560000  0.23080000  1
  Si  Si4  1  0.18200000  0.20440000  0.23080000  1
  Si  Si5  1  0.68200000  0.70440000  0.23080000  1
  Si  Si6  1  0.81800000  0.20440000  0.76920000  1
  Si  Si7  1  0.31800000  0.70440000  0.76920000  1
  Si  Si8  1  0.42850000  0.19900000  0.26540000  1
  Si  Si9  1  0.92850000  0.69900000  0.26540000  1
  Si  Si10  1  0.57150000  0.19900000  0.73460000  1
  Si  Si11  1  0.07150000  0.69900000  0.73460000  1
  Si  Si12  1  0.57150000  0.80100000  0.73460000  1
  Si  Si13  1  0.07150000  0.30100000  0.73460000  1
  Si  Si14  1  0.42850000  0.80100000  0.26540000  1
  Si  Si15  1  0.92850000  0.30100000  0.26540000  1
  Si  Si16  1  0.17190000  0.79580000  0.97650000  1
  Si  Si17  1  0.67190000  0.29580000  0.97650000  1
  Si  Si18  1  0.82810000  0.79580000  0.02350000  1
  Si  Si19  1  0.32810000  0.29580000  0.02350000  1
  Si  Si20  1  0.82810000  0.20420000  0.02350000  1
  Si  Si21  1  0.32810000  0.70420000  0.02350000  1
  Si  Si22  1  0.17190000  0.20420000  0.97650000  1
  Si  Si23  1  0.67190000  0.70420000  0.97650000  1
  Si  Si24  1  0.16030000  0.79470000  0.61740000  1
  Si  Si25  1  0.66030000  0.29470000  0.61740000  1
  Si  Si26  1  0.83970000  0.79470000  0.38260000  1
  Si  Si27  1  0.33970000  0.29470000  0.38260000  1
  Si  Si28  1  0.83970000  0.20530000  0.38260000  1
  Si  Si29  1  0.33970000  0.70530000  0.38260000  1
  Si  Si30  1  0.16030000  0.20530000  0.61740000  1
  Si  Si31  1  0.66030000  0.70530000  0.61740000  1
  Si  Si32  1  0.10520000  0.69930000  0.37130000  1
  Si  Si33  1  0.60520000  0.19930000  0.37130000  1
  Si  Si34  1  0.89480000  0.69930000  0.62870000  1
  Si  Si35  1  0.39480000  0.19930000  0.62870000  1
  Si  Si36  1  0.89480000  0.30070000  0.62870000  1
  Si  Si37  1  0.39480000  0.80070000  0.62870000  1
  Si  Si38  1  0.10520000  0.30070000  0.37130000  1
  Si  Si39  1  0.60520000  0.80070000  0.37130000  1
  Si  Si40  1  0.77880000  0.00000000  0.29420000  1
  Si  Si41  1  0.27880000  0.50000000  0.29420000  1
  Si  Si42  1  0.22120000  0.00000000  0.70580000  1
  Si  Si43  1  0.72120000  0.50000000  0.70580000  1
  Si  Si44  1  0.22130000  0.00000000  0.31140000  1
  Si  Si45  1  0.72130000  0.50000000  0.31140000  1
  Si  Si46  1  0.77870000  0.00000000  0.68860000  1
  Si  Si47  1  0.27870000  0.50000000  0.68860000  1
  Si  Si48  1  0.34550000  0.00000000  0.21930000  1
  Si  Si49  1  0.84550000  0.50000000  0.21930000  1
  Si  Si50  1  0.65450000  0.00000000  0.78070000  1
  Si  Si51  1  0.15450000  0.50000000  0.78070000  1
  Si  Si52  1  0.22230000  0.00000000  0.95590000  1
  Si  Si53  1  0.72230000  0.50000000  0.95590000  1
  Si  Si54  1  0.77770000  0.00000000  0.04410000  1
  Si  Si55  1  0.27770000  0.50000000  0.04410000  1
  Si  Si56  1  0.31810000  0.00000000  0.57670000  1
  Si  Si57  1  0.81810000  0.50000000  0.57670000  1
  Si  Si58  1  0.68190000  0.00000000  0.42330000  1
  Si  Si59  1  0.18190000  0.50000000  0.42330000  1
