# generated using pymatgen
data_O2
_symmetry_space_group_name_H-M   'P 1'
_cell_length_a   20.92770000
_cell_length_b   17.70280000
_cell_length_c   7.58770000
_cell_angle_alpha   90.00000000
_cell_angle_beta   90.00000000
_cell_angle_gamma   90.00000000
_symmetry_Int_Tables_number   1
_chemical_formula_structural   O2
_chemical_formula_sum   O96
_cell_volume   2811.08265514
_cell_formula_units_Z   48
loop_
 _symmetry_equiv_pos_site_id
 _symmetry_equiv_pos_as_xyz
  1  'x, y, z'
loop_
 _atom_site_type_symbol
 _atom_site_label
 _atom_site_symmetry_multiplicity
 _atom_site_fract_x
 _atom_site_fract_y
 _atom_site_fract_z
 _atom_site_occupancy
  O  O0  1  0.19481000  0.11014000  0.28764000  1
  O  O1  1  0.80519000  0.88986000  0.28764000  1
  O  O2  1  0.19481000  0.88986000  0.71236000  1
  O  O3  1  0.80519000  0.11014000  0.71236000  1
  O  O4  1  0.80519000  0.88986000  0.71236000  1
  O  O5  1  0.19481000  0.11014000  0.71236000  1
  O  O6  1  0.80519000  0.11014000  0.28764000  1
  O  O7  1  0.19481000  0.88986000  0.28764000  1
  O  O8  1  0.69481000  0.61014000  0.28764000  1
  O  O9  1  0.30519000  0.38986000  0.28764000  1
  O  O10  1  0.69481000  0.38986000  0.71236000  1
  O  O11  1  0.30519000  0.61014000  0.71236000  1
  O  O12  1  0.30519000  0.38986000  0.71236000  1
  O  O13  1  0.69481000  0.61014000  0.71236000  1
  O  O14  1  0.30519000  0.61014000  0.28764000  1
  O  O15  1  0.69481000  0.38986000  0.28764000  1
  O  O16  1  0.30953000  0.14146000  0.17291000  1
  O  O17  1  0.69047000  0.85854000  0.17291000  1
  O  O18  1  0.30953000  0.85854000  0.82709000  1
  O  O19  1  0.69047000  0.14146000  0.82709000  1
  O  O20  1  0.69047000  0.85854000  0.82709000  1
  O  O21  1  0.30953000  0.14146000  0.82709000  1
  O  O22  1  0.69047000  0.14146000  0.17291000  1
  O  O23  1  0.30953000  0.85854000  0.17291000  1
  O  O24  1  0.80953000  0.64146000  0.17291000  1
  O  O25  1  0.19047000  0.35854000  0.17291000  1
  O  O26  1  0.80953000  0.35854000  0.82709000  1
  O  O27  1  0.19047000  0.64146000  0.82709000  1
  O  O28  1  0.19047000  0.35854000  0.82709000  1
  O  O29  1  0.80953000  0.64146000  0.82709000  1
  O  O30  1  0.19047000  0.64146000  0.17291000  1
  O  O31  1  0.80953000  0.35854000  0.17291000  1
  O  O32  1  0.27733000  0.00000000  0.23747000  1
  O  O33  1  0.72267000  0.00000000  0.23747000  1
  O  O34  1  0.27733000  0.00000000  0.76253000  1
  O  O35  1  0.72267000  0.00000000  0.76253000  1
  O  O36  1  0.77733000  0.50000000  0.23747000  1
  O  O37  1  0.22267000  0.50000000  0.23747000  1
  O  O38  1  0.77733000  0.50000000  0.76253000  1
  O  O39  1  0.22267000  0.50000000  0.76253000  1
  O  O40  1  0.29294000  0.09518000  0.50000000  1
  O  O41  1  0.70706000  0.90482000  0.50000000  1
  O  O42  1  0.29294000  0.90482000  0.50000000  1
  O  O43  1  0.70706000  0.09518000  0.50000000  1
  O  O44  1  0.79294000  0.59518000  0.50000000  1
  O  O45  1  0.20706000  0.40482000  0.50000000  1
  O  O46  1  0.79294000  0.40482000  0.50000000  1
  O  O47  1  0.20706000  0.59518000  0.50000000  1
  O  O48  1  0.11259000  0.00000000  0.23628000  1
  O  O49  1  0.88741000  0.00000000  0.23628000  1
  O  O50  1  0.11259000  0.00000000  0.76372000  1
  O  O51  1  0.88741000  0.00000000  0.76372000  1
  O  O52  1  0.61259000  0.50000000  0.23628000  1
  O  O53  1  0.38741000  0.50000000  0.23628000  1
  O  O54  1  0.61259000  0.50000000  0.76372000  1
  O  O55  1  0.38741000  0.50000000  0.76372000  1
  O  O56  1  0.09664000  0.09450000  0.50000000  1
  O  O57  1  0.90336000  0.90550000  0.50000000  1
  O  O58  1  0.09664000  0.90550000  0.50000000  1
  O  O59  1  0.90336000  0.09450000  0.50000000  1
  O  O60  1  0.59664000  0.59450000  0.50000000  1
  O  O61  1  0.40336000  0.40550000  0.50000000  1
  O  O62  1  0.59664000  0.40550000  0.50000000  1
  O  O63  1  0.40336000  0.59450000  0.50000000  1
  O  O64  1  0.07938000  0.14072000  0.17346000  1
  O  O65  1  0.92062000  0.85928000  0.17346000  1
  O  O66  1  0.07938000  0.85928000  0.82654000  1
  O  O67  1  0.92062000  0.14072000  0.82654000  1
  O  O68  1  0.92062000  0.85928000  0.82654000  1
  O  O69  1  0.07938000  0.14072000  0.82654000  1
  O  O70  1  0.92062000  0.14072000  0.17346000  1
  O  O71  1  0.07938000  0.85928000  0.17346000  1
  O  O72  1  0.57938000  0.64072000  0.17346000  1
  O  O73  1  0.42062000  0.35928000  0.17346000  1
  O  O74  1  0.57938000  0.35928000  0.82654000  1
  O  O75  1  0.42062000  0.64072000  0.82654000  1
  O  O76  1  0.42062000  0.35928000  0.82654000  1
  O  O77  1  0.57938000  0.64072000  0.82654000  1
  O  O78  1  0.42062000  0.64072000  0.17346000  1
  O  O79  1  0.57938000  0.35928000  0.17346000  1
  O  O80  1  0.25000000  0.25000000  0.00000000  1
  O  O81  1  0.75000000  0.75000000  0.00000000  1
  O  O82  1  0.25000000  0.75000000  0.00000000  1
  O  O83  1  0.75000000  0.25000000  0.00000000  1
  O  O84  1  0.12365000  0.25877000  0.00000000  1
  O  O85  1  0.87635000  0.74123000  0.00000000  1
  O  O86  1  0.12365000  0.74123000  0.00000000  1
  O  O87  1  0.87635000  0.25877000  0.00000000  1
  O  O88  1  0.62365000  0.75877000  0.00000000  1
  O  O89  1  0.37635000  0.24123000  0.00000000  1
  O  O90  1  0.62365000  0.24123000  0.00000000  1
  O  O91  1  0.37635000  0.75877000  0.00000000  1
  O  O92  1  0.00000000  0.22630000  0.00000000  1
  O  O93  1  0.00000000  0.77370000  0.00000000  1
  O  O94  1  0.50000000  0.72630000  0.00000000  1
  O  O95  1  0.50000000  0.27370000  0.00000000  1
