# generated using pymatgen
data_Si
_symmetry_space_group_name_H-M   'P 1'
_cell_length_a   13.90100000
_cell_length_b   22.86100000
_cell_length_c   20.58200000
_cell_angle_alpha   90.00000000
_cell_angle_beta   90.00000000
_cell_angle_gamma   90.00000000
_symmetry_Int_Tables_number   1
_chemical_formula_structural   Si
_chemical_formula_sum   Si112
_cell_volume   6540.76944290
_cell_formula_units_Z   112
loop_
 _symmetry_equiv_pos_site_id
 _symmetry_equiv_pos_as_xyz
  1  'x, y, z'
loop_
 _atom_site_type_symbol
 _atom_site_label
 _atom_site_symmetry_multiplicity
 _atom_site_fract_x
 _atom_site_fract_y
 _atom_site_fract_z
 _atom_site_occupancy
  Si  Si0  1  0.28740000  0.43440000  0.42900000  1
  Si  Si1  1  0.78740000  0.93440000  0.42900000  1
  Si  Si2  1  0.71260000  0.43440000  0.42900000  1
  Si  Si3  1  0.21260000  0.93440000  0.42900000  1
  Si  Si4  1  0.28740000  0.06560000  0.42900000  1
  Si  Si5  1  0.78740000  0.56560000  0.42900000  1
  Si  Si6  1  0.71260000  0.06560000  0.42900000  1
  Si  Si7  1  0.21260000  0.56560000  0.42900000  1
  Si  Si8  1  0.71260000  0.56560000  0.57100000  1
  Si  Si9  1  0.21260000  0.06560000  0.57100000  1
  Si  Si10  1  0.28740000  0.56560000  0.57100000  1
  Si  Si11  1  0.78740000  0.06560000  0.57100000  1
  Si  Si12  1  0.71260000  0.93440000  0.57100000  1
  Si  Si13  1  0.21260000  0.43440000  0.57100000  1
  Si  Si14  1  0.28740000  0.93440000  0.57100000  1
  Si  Si15  1  0.78740000  0.43440000  0.57100000  1
  Si  Si16  1  0.18720000  0.37110000  0.06480000  1
  Si  Si17  1  0.68720000  0.87110000  0.06480000  1
  Si  Si18  1  0.81280000  0.37110000  0.06480000  1
  Si  Si19  1  0.31280000  0.87110000  0.06480000  1
  Si  Si20  1  0.18720000  0.12890000  0.06480000  1
  Si  Si21  1  0.68720000  0.62890000  0.06480000  1
  Si  Si22  1  0.81280000  0.12890000  0.06480000  1
  Si  Si23  1  0.31280000  0.62890000  0.06480000  1
  Si  Si24  1  0.81280000  0.62890000  0.93520000  1
  Si  Si25  1  0.31280000  0.12890000  0.93520000  1
  Si  Si26  1  0.18720000  0.62890000  0.93520000  1
  Si  Si27  1  0.68720000  0.12890000  0.93520000  1
  Si  Si28  1  0.81280000  0.87110000  0.93520000  1
  Si  Si29  1  0.31280000  0.37110000  0.93520000  1
  Si  Si30  1  0.18720000  0.87110000  0.93520000  1
  Si  Si31  1  0.68720000  0.37110000  0.93520000  1
  Si  Si32  1  0.28980000  0.43460000  0.18470000  1
  Si  Si33  1  0.78980000  0.93460000  0.18470000  1
  Si  Si34  1  0.71020000  0.43460000  0.18470000  1
  Si  Si35  1  0.21020000  0.93460000  0.18470000  1
  Si  Si36  1  0.28980000  0.06540000  0.18470000  1
  Si  Si37  1  0.78980000  0.56540000  0.18470000  1
  Si  Si38  1  0.71020000  0.06540000  0.18470000  1
  Si  Si39  1  0.21020000  0.56540000  0.18470000  1
  Si  Si40  1  0.71020000  0.56540000  0.81530000  1
  Si  Si41  1  0.21020000  0.06540000  0.81530000  1
  Si  Si42  1  0.28980000  0.56540000  0.81530000  1
  Si  Si43  1  0.78980000  0.06540000  0.81530000  1
  Si  Si44  1  0.71020000  0.93460000  0.81530000  1
  Si  Si45  1  0.21020000  0.43460000  0.81530000  1
  Si  Si46  1  0.28980000  0.93460000  0.81530000  1
  Si  Si47  1  0.78980000  0.43460000  0.81530000  1
  Si  Si48  1  0.19460000  0.37550000  0.30540000  1
  Si  Si49  1  0.69460000  0.87550000  0.30540000  1
  Si  Si50  1  0.80540000  0.37550000  0.30540000  1
  Si  Si51  1  0.30540000  0.87550000  0.30540000  1
  Si  Si52  1  0.19460000  0.12450000  0.30540000  1
  Si  Si53  1  0.69460000  0.62450000  0.30540000  1
  Si  Si54  1  0.80540000  0.12450000  0.30540000  1
  Si  Si55  1  0.30540000  0.62450000  0.30540000  1
  Si  Si56  1  0.80540000  0.62450000  0.69460000  1
  Si  Si57  1  0.30540000  0.12450000  0.69460000  1
  Si  Si58  1  0.19460000  0.62450000  0.69460000  1
  Si  Si59  1  0.69460000  0.12450000  0.69460000  1
  Si  Si60  1  0.80540000  0.87550000  0.69460000  1
  Si  Si61  1  0.30540000  0.37550000  0.69460000  1
  Si  Si62  1  0.19460000  0.87550000  0.69460000  1
  Si  Si63  1  0.69460000  0.37550000  0.69460000  1
  Si  Si64  1  0.00000000  0.44990000  0.30590000  1
  Si  Si65  1  0.50000000  0.94990000  0.30590000  1
  Si  Si66  1  0.00000000  0.05010000  0.30590000  1
  Si  Si67  1  0.50000000  0.55010000  0.30590000  1
  Si  Si68  1  0.00000000  0.55010000  0.69410000  1
  Si  Si69  1  0.50000000  0.05010000  0.69410000  1
  Si  Si70  1  0.00000000  0.94990000  0.69410000  1
  Si  Si71  1  0.50000000  0.44990000  0.69410000  1
  Si  Si72  1  0.00000000  0.53140000  0.43020000  1
  Si  Si73  1  0.50000000  0.03140000  0.43020000  1
  Si  Si74  1  0.00000000  0.96860000  0.43020000  1
  Si  Si75  1  0.50000000  0.46860000  0.43020000  1
  Si  Si76  1  0.00000000  0.46860000  0.56980000  1
  Si  Si77  1  0.50000000  0.96860000  0.56980000  1
  Si  Si78  1  0.00000000  0.03140000  0.56980000  1
  Si  Si79  1  0.50000000  0.53140000  0.56980000  1
  Si  Si80  1  0.00000000  0.44860000  0.05320000  1
  Si  Si81  1  0.50000000  0.94860000  0.05320000  1
  Si  Si82  1  0.00000000  0.05140000  0.05320000  1
  Si  Si83  1  0.50000000  0.55140000  0.05320000  1
  Si  Si84  1  0.00000000  0.55140000  0.94680000  1
  Si  Si85  1  0.50000000  0.05140000  0.94680000  1
  Si  Si86  1  0.00000000  0.94860000  0.94680000  1
  Si  Si87  1  0.50000000  0.44860000  0.94680000  1
  Si  Si88  1  0.00000000  0.52720000  0.17880000  1
  Si  Si89  1  0.50000000  0.02720000  0.17880000  1
  Si  Si90  1  0.00000000  0.97280000  0.17880000  1
  Si  Si91  1  0.50000000  0.47280000  0.17880000  1
  Si  Si92  1  0.00000000  0.47280000  0.82120000  1
  Si  Si93  1  0.50000000  0.97280000  0.82120000  1
  Si  Si94  1  0.00000000  0.02720000  0.82120000  1
  Si  Si95  1  0.50000000  0.52720000  0.82120000  1
  Si  Si96  1  0.10980000  0.25000000  0.12160000  1
  Si  Si97  1  0.60980000  0.75000000  0.12160000  1
  Si  Si98  1  0.89020000  0.25000000  0.12160000  1
  Si  Si99  1  0.39020000  0.75000000  0.12160000  1
  Si  Si100  1  0.89020000  0.75000000  0.87840000  1
  Si  Si101  1  0.39020000  0.25000000  0.87840000  1
  Si  Si102  1  0.10980000  0.75000000  0.87840000  1
  Si  Si103  1  0.60980000  0.25000000  0.87840000  1
  Si  Si104  1  0.11040000  0.25000000  0.27780000  1
  Si  Si105  1  0.61040000  0.75000000  0.27780000  1
  Si  Si106  1  0.88960000  0.25000000  0.27780000  1
  Si  Si107  1  0.38960000  0.75000000  0.27780000  1
  Si  Si108  1  0.88960000  0.75000000  0.72220000  1
  Si  Si109  1  0.38960000  0.25000000  0.72220000  1
  Si  Si110  1  0.11040000  0.75000000  0.72220000  1
  Si  Si111  1  0.61040000  0.25000000  0.72220000  1
