# generated using pymatgen
data_O2
_symmetry_space_group_name_H-M   'P 1'
_cell_length_a   13.90100000
_cell_length_b   22.86100000
_cell_length_c   20.58200000
_cell_angle_alpha   90.00000000
_cell_angle_beta   90.00000000
_cell_angle_gamma   90.00000000
_symmetry_Int_Tables_number   1
_chemical_formula_structural   O2
_chemical_formula_sum   O224
_cell_volume   6540.76944290
_cell_formula_units_Z   112
loop_
 _symmetry_equiv_pos_site_id
 _symmetry_equiv_pos_as_xyz
  1  'x, y, z'
loop_
 _atom_site_type_symbol
 _atom_site_label
 _atom_site_symmetry_multiplicity
 _atom_site_fract_x
 _atom_site_fract_y
 _atom_site_fract_z
 _atom_site_occupancy
  O  O0  1  0.25000000  0.41490000  0.50000000  1
  O  O1  1  0.75000000  0.91490000  0.50000000  1
  O  O2  1  0.75000000  0.41490000  0.50000000  1
  O  O3  1  0.25000000  0.91490000  0.50000000  1
  O  O4  1  0.25000000  0.08510000  0.50000000  1
  O  O5  1  0.75000000  0.58510000  0.50000000  1
  O  O6  1  0.75000000  0.08510000  0.50000000  1
  O  O7  1  0.25000000  0.58510000  0.50000000  1
  O  O8  1  0.24310000  0.39170000  0.37420000  1
  O  O9  1  0.74310000  0.89170000  0.37420000  1
  O  O10  1  0.75690000  0.39170000  0.37420000  1
  O  O11  1  0.25690000  0.89170000  0.37420000  1
  O  O12  1  0.24310000  0.10830000  0.37420000  1
  O  O13  1  0.74310000  0.60830000  0.37420000  1
  O  O14  1  0.75690000  0.10830000  0.37420000  1
  O  O15  1  0.25690000  0.60830000  0.37420000  1
  O  O16  1  0.75690000  0.60830000  0.62580000  1
  O  O17  1  0.25690000  0.10830000  0.62580000  1
  O  O18  1  0.24310000  0.60830000  0.62580000  1
  O  O19  1  0.74310000  0.10830000  0.62580000  1
  O  O20  1  0.75690000  0.89170000  0.62580000  1
  O  O21  1  0.25690000  0.39170000  0.62580000  1
  O  O22  1  0.24310000  0.89170000  0.62580000  1
  O  O23  1  0.74310000  0.39170000  0.62580000  1
  O  O24  1  0.40320000  0.43030000  0.42480000  1
  O  O25  1  0.90320000  0.93030000  0.42480000  1
  O  O26  1  0.59680000  0.43030000  0.42480000  1
  O  O27  1  0.09680000  0.93030000  0.42480000  1
  O  O28  1  0.40320000  0.06970000  0.42480000  1
  O  O29  1  0.90320000  0.56970000  0.42480000  1
  O  O30  1  0.59680000  0.06970000  0.42480000  1
  O  O31  1  0.09680000  0.56970000  0.42480000  1
  O  O32  1  0.59680000  0.56970000  0.57520000  1
  O  O33  1  0.09680000  0.06970000  0.57520000  1
  O  O34  1  0.40320000  0.56970000  0.57520000  1
  O  O35  1  0.90320000  0.06970000  0.57520000  1
  O  O36  1  0.59680000  0.93030000  0.57520000  1
  O  O37  1  0.09680000  0.43030000  0.57520000  1
  O  O38  1  0.40320000  0.93030000  0.57520000  1
  O  O39  1  0.90320000  0.43030000  0.57520000  1
  O  O40  1  0.25000000  0.50000000  0.41530000  1
  O  O41  1  0.75000000  0.00000000  0.41530000  1
  O  O42  1  0.75000000  0.50000000  0.41530000  1
  O  O43  1  0.25000000  0.00000000  0.41530000  1
  O  O44  1  0.75000000  0.50000000  0.58470000  1
  O  O45  1  0.25000000  0.00000000  0.58470000  1
  O  O46  1  0.25000000  0.50000000  0.58470000  1
  O  O47  1  0.75000000  0.00000000  0.58470000  1
  O  O48  1  0.25000000  0.36240000  0.00000000  1
  O  O49  1  0.75000000  0.86240000  0.00000000  1
  O  O50  1  0.75000000  0.36240000  0.00000000  1
  O  O51  1  0.25000000  0.86240000  0.00000000  1
  O  O52  1  0.25000000  0.13760000  0.00000000  1
  O  O53  1  0.75000000  0.63760000  0.00000000  1
  O  O54  1  0.75000000  0.13760000  0.00000000  1
  O  O55  1  0.25000000  0.63760000  0.00000000  1
  O  O56  1  0.16120000  0.30780000  0.09380000  1
  O  O57  1  0.66120000  0.80780000  0.09380000  1
  O  O58  1  0.83880000  0.30780000  0.09380000  1
  O  O59  1  0.33880000  0.80780000  0.09380000  1
  O  O60  1  0.16120000  0.19220000  0.09380000  1
  O  O61  1  0.66120000  0.69220000  0.09380000  1
  O  O62  1  0.83880000  0.19220000  0.09380000  1
  O  O63  1  0.33880000  0.69220000  0.09380000  1
  O  O64  1  0.83880000  0.69220000  0.90620000  1
  O  O65  1  0.33880000  0.19220000  0.90620000  1
  O  O66  1  0.16120000  0.69220000  0.90620000  1
  O  O67  1  0.66120000  0.19220000  0.90620000  1
  O  O68  1  0.83880000  0.80780000  0.90620000  1
  O  O69  1  0.33880000  0.30780000  0.90620000  1
  O  O70  1  0.16120000  0.80780000  0.90620000  1
  O  O71  1  0.66120000  0.30780000  0.90620000  1
  O  O72  1  0.09320000  0.40760000  0.04430000  1
  O  O73  1  0.59320000  0.90760000  0.04430000  1
  O  O74  1  0.90680000  0.40760000  0.04430000  1
  O  O75  1  0.40680000  0.90760000  0.04430000  1
  O  O76  1  0.09320000  0.09240000  0.04430000  1
  O  O77  1  0.59320000  0.59240000  0.04430000  1
  O  O78  1  0.90680000  0.09240000  0.04430000  1
  O  O79  1  0.40680000  0.59240000  0.04430000  1
  O  O80  1  0.90680000  0.59240000  0.95570000  1
  O  O81  1  0.40680000  0.09240000  0.95570000  1
  O  O82  1  0.09320000  0.59240000  0.95570000  1
  O  O83  1  0.59320000  0.09240000  0.95570000  1
  O  O84  1  0.90680000  0.90760000  0.95570000  1
  O  O85  1  0.40680000  0.40760000  0.95570000  1
  O  O86  1  0.09320000  0.90760000  0.95570000  1
  O  O87  1  0.59320000  0.40760000  0.95570000  1
  O  O88  1  0.24330000  0.40810000  0.11930000  1
  O  O89  1  0.74330000  0.90810000  0.11930000  1
  O  O90  1  0.75670000  0.40810000  0.11930000  1
  O  O91  1  0.25670000  0.90810000  0.11930000  1
  O  O92  1  0.24330000  0.09190000  0.11930000  1
  O  O93  1  0.74330000  0.59190000  0.11930000  1
  O  O94  1  0.75670000  0.09190000  0.11930000  1
  O  O95  1  0.25670000  0.59190000  0.11930000  1
  O  O96  1  0.75670000  0.59190000  0.88070000  1
  O  O97  1  0.25670000  0.09190000  0.88070000  1
  O  O98  1  0.24330000  0.59190000  0.88070000  1
  O  O99  1  0.74330000  0.09190000  0.88070000  1
  O  O100  1  0.75670000  0.90810000  0.88070000  1
  O  O101  1  0.25670000  0.40810000  0.88070000  1
  O  O102  1  0.24330000  0.90810000  0.88070000  1
  O  O103  1  0.74330000  0.40810000  0.88070000  1
  O  O104  1  0.40440000  0.43360000  0.17300000  1
  O  O105  1  0.90440000  0.93360000  0.17300000  1
  O  O106  1  0.59560000  0.43360000  0.17300000  1
  O  O107  1  0.09560000  0.93360000  0.17300000  1
  O  O108  1  0.40440000  0.06640000  0.17300000  1
  O  O109  1  0.90440000  0.56640000  0.17300000  1
  O  O110  1  0.59560000  0.06640000  0.17300000  1
  O  O111  1  0.09560000  0.56640000  0.17300000  1
  O  O112  1  0.59560000  0.56640000  0.82700000  1
  O  O113  1  0.09560000  0.06640000  0.82700000  1
  O  O114  1  0.40440000  0.56640000  0.82700000  1
  O  O115  1  0.90440000  0.06640000  0.82700000  1
  O  O116  1  0.59560000  0.93360000  0.82700000  1
  O  O117  1  0.09560000  0.43360000  0.82700000  1
  O  O118  1  0.40440000  0.93360000  0.82700000  1
  O  O119  1  0.90440000  0.43360000  0.82700000  1
  O  O120  1  0.25000000  0.50000000  0.19590000  1
  O  O121  1  0.75000000  0.00000000  0.19590000  1
  O  O122  1  0.75000000  0.50000000  0.19590000  1
  O  O123  1  0.25000000  0.00000000  0.19590000  1
  O  O124  1  0.75000000  0.50000000  0.80410000  1
  O  O125  1  0.25000000  0.00000000  0.80410000  1
  O  O126  1  0.25000000  0.50000000  0.80410000  1
  O  O127  1  0.75000000  0.00000000  0.80410000  1
  O  O128  1  0.26360000  0.39370000  0.24590000  1
  O  O129  1  0.76360000  0.89370000  0.24590000  1
  O  O130  1  0.73640000  0.39370000  0.24590000  1
  O  O131  1  0.23640000  0.89370000  0.24590000  1
  O  O132  1  0.26360000  0.10630000  0.24590000  1
  O  O133  1  0.76360000  0.60630000  0.24590000  1
  O  O134  1  0.73640000  0.10630000  0.24590000  1
  O  O135  1  0.23640000  0.60630000  0.24590000  1
  O  O136  1  0.73640000  0.60630000  0.75410000  1
  O  O137  1  0.23640000  0.10630000  0.75410000  1
  O  O138  1  0.26360000  0.60630000  0.75410000  1
  O  O139  1  0.76360000  0.10630000  0.75410000  1
  O  O140  1  0.73640000  0.89370000  0.75410000  1
  O  O141  1  0.23640000  0.39370000  0.75410000  1
  O  O142  1  0.26360000  0.89370000  0.75410000  1
  O  O143  1  0.76360000  0.39370000  0.75410000  1
  O  O144  1  0.16750000  0.30700000  0.30310000  1
  O  O145  1  0.66750000  0.80700000  0.30310000  1
  O  O146  1  0.83250000  0.30700000  0.30310000  1
  O  O147  1  0.33250000  0.80700000  0.30310000  1
  O  O148  1  0.16750000  0.19300000  0.30310000  1
  O  O149  1  0.66750000  0.69300000  0.30310000  1
  O  O150  1  0.83250000  0.19300000  0.30310000  1
  O  O151  1  0.33250000  0.69300000  0.30310000  1
  O  O152  1  0.83250000  0.69300000  0.69690000  1
  O  O153  1  0.33250000  0.19300000  0.69690000  1
  O  O154  1  0.16750000  0.69300000  0.69690000  1
  O  O155  1  0.66750000  0.19300000  0.69690000  1
  O  O156  1  0.83250000  0.80700000  0.69690000  1
  O  O157  1  0.33250000  0.30700000  0.69690000  1
  O  O158  1  0.16750000  0.80700000  0.69690000  1
  O  O159  1  0.66750000  0.30700000  0.69690000  1
  O  O160  1  0.09490000  0.41070000  0.29800000  1
  O  O161  1  0.59490000  0.91070000  0.29800000  1
  O  O162  1  0.90510000  0.41070000  0.29800000  1
  O  O163  1  0.40510000  0.91070000  0.29800000  1
  O  O164  1  0.09490000  0.08930000  0.29800000  1
  O  O165  1  0.59490000  0.58930000  0.29800000  1
  O  O166  1  0.90510000  0.08930000  0.29800000  1
  O  O167  1  0.40510000  0.58930000  0.29800000  1
  O  O168  1  0.90510000  0.58930000  0.70200000  1
  O  O169  1  0.40510000  0.08930000  0.70200000  1
  O  O170  1  0.09490000  0.58930000  0.70200000  1
  O  O171  1  0.59490000  0.08930000  0.70200000  1
  O  O172  1  0.90510000  0.91070000  0.70200000  1
  O  O173  1  0.40510000  0.41070000  0.70200000  1
  O  O174  1  0.09490000  0.91070000  0.70200000  1
  O  O175  1  0.59490000  0.41070000  0.70200000  1
  O  O176  1  0.00000000  0.49960000  0.25070000  1
  O  O177  1  0.50000000  0.99960000  0.25070000  1
  O  O178  1  0.00000000  0.00040000  0.25070000  1
  O  O179  1  0.50000000  0.50040000  0.25070000  1
  O  O180  1  0.00000000  0.50040000  0.74930000  1
  O  O181  1  0.50000000  0.00040000  0.74930000  1
  O  O182  1  0.00000000  0.99960000  0.74930000  1
  O  O183  1  0.50000000  0.49960000  0.74930000  1
  O  O184  1  0.00000000  0.48080000  0.37600000  1
  O  O185  1  0.50000000  0.98080000  0.37600000  1
  O  O186  1  0.00000000  0.01920000  0.37600000  1
  O  O187  1  0.50000000  0.51920000  0.37600000  1
  O  O188  1  0.00000000  0.51920000  0.62400000  1
  O  O189  1  0.50000000  0.01920000  0.62400000  1
  O  O190  1  0.00000000  0.98080000  0.62400000  1
  O  O191  1  0.50000000  0.48080000  0.62400000  1
  O  O192  1  0.00000000  0.50000000  0.50000000  1
  O  O193  1  0.50000000  0.00000000  0.50000000  1
  O  O194  1  0.00000000  0.00000000  0.50000000  1
  O  O195  1  0.50000000  0.50000000  0.50000000  1
  O  O196  1  0.00000000  0.47600000  0.12520000  1
  O  O197  1  0.50000000  0.97600000  0.12520000  1
  O  O198  1  0.00000000  0.02400000  0.12520000  1
  O  O199  1  0.50000000  0.52400000  0.12520000  1
  O  O200  1  0.00000000  0.52400000  0.87480000  1
  O  O201  1  0.50000000  0.02400000  0.87480000  1
  O  O202  1  0.00000000  0.97600000  0.87480000  1
  O  O203  1  0.50000000  0.47600000  0.87480000  1
  O  O204  1  0.00000000  0.50000000  0.00000000  1
  O  O205  1  0.50000000  0.00000000  0.00000000  1
  O  O206  1  0.00000000  0.00000000  0.00000000  1
  O  O207  1  0.50000000  0.50000000  0.00000000  1
  O  O208  1  0.11260000  0.25000000  0.19960000  1
  O  O209  1  0.61260000  0.75000000  0.19960000  1
  O  O210  1  0.88740000  0.25000000  0.19960000  1
  O  O211  1  0.38740000  0.75000000  0.19960000  1
  O  O212  1  0.88740000  0.75000000  0.80040000  1
  O  O213  1  0.38740000  0.25000000  0.80040000  1
  O  O214  1  0.11260000  0.75000000  0.80040000  1
  O  O215  1  0.61260000  0.25000000  0.80040000  1
  O  O216  1  0.00000000  0.25000000  0.09690000  1
  O  O217  1  0.50000000  0.75000000  0.09690000  1
  O  O218  1  0.00000000  0.75000000  0.90310000  1
  O  O219  1  0.50000000  0.25000000  0.90310000  1
  O  O220  1  0.00000000  0.25000000  0.30180000  1
  O  O221  1  0.50000000  0.75000000  0.30180000  1
  O  O222  1  0.00000000  0.75000000  0.69820000  1
  O  O223  1  0.50000000  0.25000000  0.69820000  1
