# generated using pymatgen
data_SiO4
_symmetry_space_group_name_H-M   'P 1'
_cell_length_a   13.90100000
_cell_length_b   22.86100000
_cell_length_c   20.58200000
_cell_angle_alpha   90.00000000
_cell_angle_beta   90.00000000
_cell_angle_gamma   90.00000000
_symmetry_Int_Tables_number   1
_chemical_formula_structural   SiO4
_chemical_formula_sum   'Si1 O4'
_cell_volume   6540.76944290
_cell_formula_units_Z   1
loop_
 _symmetry_equiv_pos_site_id
 _symmetry_equiv_pos_as_xyz
  1  'x, y, z'
loop_
 _atom_site_type_symbol
 _atom_site_label
 _atom_site_symmetry_multiplicity
 _atom_site_fract_x
 _atom_site_fract_y
 _atom_site_fract_z
 _atom_site_occupancy
  Si  Si0  1  0.50000000  0.44990000  0.69410000  1
  O  O1  1  0.40510000  0.41070000  0.70200000  1
  O  O2  1  0.59490000  0.41070000  0.70200000  1
  O  O3  1  0.50000000  0.49960000  0.74930000  1
  O  O4  1  0.50000000  0.48080000  0.62400000  1
