# generated using pymatgen
data_O2
_symmetry_space_group_name_H-M   'P 1'
_cell_length_a   14.19000000
_cell_length_b   14.19000000
_cell_length_c   11.49900000
_cell_angle_alpha   90.00000000
_cell_angle_beta   90.00000000
_cell_angle_gamma   120.00000000
_symmetry_Int_Tables_number   1
_chemical_formula_structural   O2
_chemical_formula_sum   O68
_cell_volume   2005.18984528
_cell_formula_units_Z   34
loop_
 _symmetry_equiv_pos_site_id
 _symmetry_equiv_pos_as_xyz
  1  'x, y, z'
loop_
 _atom_site_type_symbol
 _atom_site_label
 _atom_site_symmetry_multiplicity
 _atom_site_fract_x
 _atom_site_fract_y
 _atom_site_fract_z
 _atom_site_occupancy
  O  O0  1  0.39520000  0.28930000  0.30350000  1
  O  O1  1  0.71070000  0.10590000  0.30350000  1
  O  O2  1  0.89410000  0.60480000  0.30350000  1
  O  O3  1  0.60480000  0.71070000  0.30350000  1
  O  O4  1  0.28930000  0.89410000  0.30350000  1
  O  O5  1  0.10590000  0.39520000  0.30350000  1
  O  O6  1  0.71070000  0.60480000  0.30350000  1
  O  O7  1  0.89410000  0.28930000  0.30350000  1
  O  O8  1  0.39520000  0.10590000  0.30350000  1
  O  O9  1  0.28930000  0.39520000  0.30350000  1
  O  O10  1  0.10590000  0.71070000  0.30350000  1
  O  O11  1  0.60480000  0.89410000  0.30350000  1
  O  O12  1  0.60480000  0.71070000  0.69650000  1
  O  O13  1  0.28930000  0.89410000  0.69650000  1
  O  O14  1  0.10590000  0.39520000  0.69650000  1
  O  O15  1  0.39520000  0.28930000  0.69650000  1
  O  O16  1  0.71070000  0.10590000  0.69650000  1
  O  O17  1  0.89410000  0.60480000  0.69650000  1
  O  O18  1  0.28930000  0.39520000  0.69650000  1
  O  O19  1  0.10590000  0.71070000  0.69650000  1
  O  O20  1  0.60480000  0.89410000  0.69650000  1
  O  O21  1  0.71070000  0.60480000  0.69650000  1
  O  O22  1  0.89410000  0.28930000  0.69650000  1
  O  O23  1  0.39520000  0.10590000  0.69650000  1
  O  O24  1  0.33720000  0.16860000  0.11400000  1
  O  O25  1  0.83140000  0.16860000  0.11400000  1
  O  O26  1  0.83140000  0.66280000  0.11400000  1
  O  O27  1  0.66280000  0.83140000  0.11400000  1
  O  O28  1  0.16860000  0.83140000  0.11400000  1
  O  O29  1  0.16860000  0.33720000  0.11400000  1
  O  O30  1  0.66280000  0.83140000  0.88600000  1
  O  O31  1  0.16860000  0.83140000  0.88600000  1
  O  O32  1  0.16860000  0.33720000  0.88600000  1
  O  O33  1  0.33720000  0.16860000  0.88600000  1
  O  O34  1  0.83140000  0.16860000  0.88600000  1
  O  O35  1  0.83140000  0.66280000  0.88600000  1
  O  O36  1  0.54270000  0.27140000  0.18490000  1
  O  O37  1  0.72860000  0.27130000  0.18490000  1
  O  O38  1  0.72870000  0.45730000  0.18490000  1
  O  O39  1  0.45730000  0.72860000  0.18490000  1
  O  O40  1  0.27140000  0.72870000  0.18490000  1
  O  O41  1  0.27130000  0.54270000  0.18490000  1
  O  O42  1  0.45730000  0.72860000  0.81510000  1
  O  O43  1  0.27140000  0.72870000  0.81510000  1
  O  O44  1  0.27130000  0.54270000  0.81510000  1
  O  O45  1  0.54270000  0.27140000  0.81510000  1
  O  O46  1  0.72860000  0.27130000  0.81510000  1
  O  O47  1  0.72870000  0.45730000  0.81510000  1
  O  O48  1  0.36590000  0.00000000  0.50000000  1
  O  O49  1  0.00000000  0.36590000  0.50000000  1
  O  O50  1  0.63410000  0.63410000  0.50000000  1
  O  O51  1  0.63410000  0.00000000  0.50000000  1
  O  O52  1  0.00000000  0.63410000  0.50000000  1
  O  O53  1  0.36590000  0.36590000  0.50000000  1
  O  O54  1  0.50000000  0.00000000  0.34140000  1
  O  O55  1  0.00000000  0.50000000  0.34140000  1
  O  O56  1  0.50000000  0.50000000  0.34140000  1
  O  O57  1  0.50000000  0.00000000  0.65860000  1
  O  O58  1  0.00000000  0.50000000  0.65860000  1
  O  O59  1  0.50000000  0.50000000  0.65860000  1
  O  O60  1  0.18540000  0.00000000  0.00000000  1
  O  O61  1  0.00000000  0.18540000  0.00000000  1
  O  O62  1  0.81460000  0.81460000  0.00000000  1
  O  O63  1  0.81460000  0.00000000  0.00000000  1
  O  O64  1  0.00000000  0.81460000  0.00000000  1
  O  O65  1  0.18540000  0.18540000  0.00000000  1
  O  O66  1  0.33333333  0.66666667  0.00000000  1
  O  O67  1  0.66666667  0.33333333  0.00000000  1
