# generated using pymatgen
data_O2
_symmetry_space_group_name_H-M   'P 1'
_cell_length_a   18.24600000
_cell_length_b   18.24600000
_cell_length_c   20.55700000
_cell_angle_alpha   90.00000000
_cell_angle_beta   90.00000000
_cell_angle_gamma   90.00000000
_symmetry_Int_Tables_number   1
_chemical_formula_structural   O2
_chemical_formula_sum   O224
_cell_volume   6843.76481941
_cell_formula_units_Z   112
loop_
 _symmetry_equiv_pos_site_id
 _symmetry_equiv_pos_as_xyz
  1  'x, y, z'
loop_
 _atom_site_type_symbol
 _atom_site_label
 _atom_site_symmetry_multiplicity
 _atom_site_fract_x
 _atom_site_fract_y
 _atom_site_fract_z
 _atom_site_occupancy
  O  O0  1  0.12870000  0.72290000  0.19410000  1
  O  O1  1  0.77710000  0.62870000  0.69410000  1
  O  O2  1  0.87130000  0.27710000  0.19410000  1
  O  O3  1  0.22290000  0.37130000  0.69410000  1
  O  O4  1  0.37130000  0.22290000  0.69410000  1
  O  O5  1  0.72290000  0.12870000  0.19410000  1
  O  O6  1  0.62870000  0.77710000  0.69410000  1
  O  O7  1  0.27710000  0.87130000  0.19410000  1
  O  O8  1  0.87130000  0.27710000  0.80590000  1
  O  O9  1  0.22290000  0.37130000  0.30590000  1
  O  O10  1  0.12870000  0.72290000  0.80590000  1
  O  O11  1  0.77710000  0.62870000  0.30590000  1
  O  O12  1  0.62870000  0.77710000  0.30590000  1
  O  O13  1  0.27710000  0.87130000  0.80590000  1
  O  O14  1  0.37130000  0.22290000  0.30590000  1
  O  O15  1  0.72290000  0.12870000  0.80590000  1
  O  O16  1  0.05530000  0.75150000  0.08730000  1
  O  O17  1  0.74850000  0.55530000  0.58730000  1
  O  O18  1  0.94470000  0.24850000  0.08730000  1
  O  O19  1  0.25150000  0.44470000  0.58730000  1
  O  O20  1  0.44470000  0.25150000  0.58730000  1
  O  O21  1  0.75150000  0.05530000  0.08730000  1
  O  O22  1  0.55530000  0.74850000  0.58730000  1
  O  O23  1  0.24850000  0.94470000  0.08730000  1
  O  O24  1  0.94470000  0.24850000  0.91270000  1
  O  O25  1  0.25150000  0.44470000  0.41270000  1
  O  O26  1  0.05530000  0.75150000  0.91270000  1
  O  O27  1  0.74850000  0.55530000  0.41270000  1
  O  O28  1  0.55530000  0.74850000  0.41270000  1
  O  O29  1  0.24850000  0.94470000  0.91270000  1
  O  O30  1  0.44470000  0.25150000  0.41270000  1
  O  O31  1  0.75150000  0.05530000  0.91270000  1
  O  O32  1  0.18000000  0.68050000  0.08110000  1
  O  O33  1  0.81950000  0.68000000  0.58110000  1
  O  O34  1  0.82000000  0.31950000  0.08110000  1
  O  O35  1  0.18050000  0.32000000  0.58110000  1
  O  O36  1  0.32000000  0.18050000  0.58110000  1
  O  O37  1  0.68050000  0.18000000  0.08110000  1
  O  O38  1  0.68000000  0.81950000  0.58110000  1
  O  O39  1  0.31950000  0.82000000  0.08110000  1
  O  O40  1  0.82000000  0.31950000  0.91890000  1
  O  O41  1  0.18050000  0.32000000  0.41890000  1
  O  O42  1  0.18000000  0.68050000  0.91890000  1
  O  O43  1  0.81950000  0.68000000  0.41890000  1
  O  O44  1  0.68000000  0.81950000  0.41890000  1
  O  O45  1  0.31950000  0.82000000  0.91890000  1
  O  O46  1  0.32000000  0.18050000  0.41890000  1
  O  O47  1  0.68050000  0.18000000  0.91890000  1
  O  O48  1  0.17920000  0.82080000  0.11130000  1
  O  O49  1  0.67920000  0.67920000  0.61130000  1
  O  O50  1  0.82080000  0.17920000  0.11130000  1
  O  O51  1  0.32080000  0.32080000  0.61130000  1
  O  O52  1  0.82080000  0.17920000  0.88870000  1
  O  O53  1  0.32080000  0.32080000  0.38870000  1
  O  O54  1  0.17920000  0.82080000  0.88870000  1
  O  O55  1  0.67920000  0.67920000  0.38870000  1
  O  O56  1  0.05380000  0.75070000  0.30050000  1
  O  O57  1  0.74930000  0.55380000  0.80050000  1
  O  O58  1  0.94620000  0.24930000  0.30050000  1
  O  O59  1  0.25070000  0.44620000  0.80050000  1
  O  O60  1  0.44620000  0.25070000  0.80050000  1
  O  O61  1  0.75070000  0.05380000  0.30050000  1
  O  O62  1  0.55380000  0.74930000  0.80050000  1
  O  O63  1  0.24930000  0.94620000  0.30050000  1
  O  O64  1  0.94620000  0.24930000  0.69950000  1
  O  O65  1  0.25070000  0.44620000  0.19950000  1
  O  O66  1  0.05380000  0.75070000  0.69950000  1
  O  O67  1  0.74930000  0.55380000  0.19950000  1
  O  O68  1  0.55380000  0.74930000  0.19950000  1
  O  O69  1  0.24930000  0.94620000  0.69950000  1
  O  O70  1  0.44620000  0.25070000  0.19950000  1
  O  O71  1  0.75070000  0.05380000  0.69950000  1
  O  O72  1  0.18440000  0.69130000  0.30880000  1
  O  O73  1  0.80870000  0.68440000  0.80880000  1
  O  O74  1  0.81560000  0.30870000  0.30880000  1
  O  O75  1  0.19130000  0.31560000  0.80880000  1
  O  O76  1  0.31560000  0.19130000  0.80880000  1
  O  O77  1  0.69130000  0.18440000  0.30880000  1
  O  O78  1  0.68440000  0.80870000  0.80880000  1
  O  O79  1  0.30870000  0.81560000  0.30880000  1
  O  O80  1  0.81560000  0.30870000  0.69120000  1
  O  O81  1  0.19130000  0.31560000  0.19120000  1
  O  O82  1  0.18440000  0.69130000  0.69120000  1
  O  O83  1  0.80870000  0.68440000  0.19120000  1
  O  O84  1  0.68440000  0.80870000  0.19120000  1
  O  O85  1  0.30870000  0.81560000  0.69120000  1
  O  O86  1  0.31560000  0.19130000  0.19120000  1
  O  O87  1  0.69130000  0.18440000  0.69120000  1
  O  O88  1  0.17160000  0.82840000  0.27230000  1
  O  O89  1  0.67160000  0.67160000  0.77230000  1
  O  O90  1  0.82840000  0.17160000  0.27230000  1
  O  O91  1  0.32840000  0.32840000  0.77230000  1
  O  O92  1  0.82840000  0.17160000  0.72770000  1
  O  O93  1  0.32840000  0.32840000  0.22770000  1
  O  O94  1  0.17160000  0.82840000  0.72770000  1
  O  O95  1  0.67160000  0.67160000  0.22770000  1
  O  O96  1  0.08310000  0.26120000  0.12300000  1
  O  O97  1  0.23880000  0.58310000  0.62300000  1
  O  O98  1  0.91690000  0.73880000  0.12300000  1
  O  O99  1  0.76120000  0.41690000  0.62300000  1
  O  O100  1  0.41690000  0.76120000  0.62300000  1
  O  O101  1  0.26120000  0.08310000  0.12300000  1
  O  O102  1  0.58310000  0.23880000  0.62300000  1
  O  O103  1  0.73880000  0.91690000  0.12300000  1
  O  O104  1  0.91690000  0.73880000  0.87700000  1
  O  O105  1  0.76120000  0.41690000  0.37700000  1
  O  O106  1  0.08310000  0.26120000  0.87700000  1
  O  O107  1  0.23880000  0.58310000  0.37700000  1
  O  O108  1  0.58310000  0.23880000  0.37700000  1
  O  O109  1  0.73880000  0.91690000  0.87700000  1
  O  O110  1  0.41690000  0.76120000  0.37700000  1
  O  O111  1  0.26120000  0.08310000  0.87700000  1
  O  O112  1  0.04930000  0.23840000  0.00000000  1
  O  O113  1  0.26160000  0.54930000  0.50000000  1
  O  O114  1  0.95070000  0.76160000  0.00000000  1
  O  O115  1  0.73840000  0.45070000  0.50000000  1
  O  O116  1  0.45070000  0.73840000  0.50000000  1
  O  O117  1  0.23840000  0.04930000  0.00000000  1
  O  O118  1  0.54930000  0.26160000  0.50000000  1
  O  O119  1  0.76160000  0.95070000  0.00000000  1
  O  O120  1  0.03180000  0.13370000  0.08620000  1
  O  O121  1  0.36630000  0.53180000  0.58620000  1
  O  O122  1  0.96820000  0.86630000  0.08620000  1
  O  O123  1  0.63370000  0.46820000  0.58620000  1
  O  O124  1  0.46820000  0.63370000  0.58620000  1
  O  O125  1  0.13370000  0.03180000  0.08620000  1
  O  O126  1  0.53180000  0.36630000  0.58620000  1
  O  O127  1  0.86630000  0.96820000  0.08620000  1
  O  O128  1  0.96820000  0.86630000  0.91380000  1
  O  O129  1  0.63370000  0.46820000  0.41380000  1
  O  O130  1  0.03180000  0.13370000  0.91380000  1
  O  O131  1  0.36630000  0.53180000  0.41380000  1
  O  O132  1  0.53180000  0.36630000  0.41380000  1
  O  O133  1  0.86630000  0.96820000  0.91380000  1
  O  O134  1  0.46820000  0.63370000  0.41380000  1
  O  O135  1  0.13370000  0.03180000  0.91380000  1
  O  O136  1  0.17280000  0.17280000  0.18590000  1
  O  O137  1  0.32720000  0.67280000  0.68590000  1
  O  O138  1  0.82720000  0.82720000  0.18590000  1
  O  O139  1  0.67280000  0.32720000  0.68590000  1
  O  O140  1  0.82720000  0.82720000  0.81410000  1
  O  O141  1  0.67280000  0.32720000  0.31410000  1
  O  O142  1  0.17280000  0.17280000  0.81410000  1
  O  O143  1  0.32720000  0.67280000  0.31410000  1
  O  O144  1  0.07890000  0.25530000  0.25040000  1
  O  O145  1  0.24470000  0.57890000  0.75040000  1
  O  O146  1  0.92110000  0.74470000  0.25040000  1
  O  O147  1  0.75530000  0.42110000  0.75040000  1
  O  O148  1  0.42110000  0.75530000  0.75040000  1
  O  O149  1  0.25530000  0.07890000  0.25040000  1
  O  O150  1  0.57890000  0.24470000  0.75040000  1
  O  O151  1  0.74470000  0.92110000  0.25040000  1
  O  O152  1  0.92110000  0.74470000  0.74960000  1
  O  O153  1  0.75530000  0.42110000  0.24960000  1
  O  O154  1  0.07890000  0.25530000  0.74960000  1
  O  O155  1  0.24470000  0.57890000  0.24960000  1
  O  O156  1  0.57890000  0.24470000  0.24960000  1
  O  O157  1  0.74470000  0.92110000  0.74960000  1
  O  O158  1  0.42110000  0.75530000  0.24960000  1
  O  O159  1  0.25530000  0.07890000  0.74960000  1
  O  O160  1  0.03330000  0.13500000  0.30850000  1
  O  O161  1  0.36500000  0.53330000  0.80850000  1
  O  O162  1  0.96670000  0.86500000  0.30850000  1
  O  O163  1  0.63500000  0.46670000  0.80850000  1
  O  O164  1  0.46670000  0.63500000  0.80850000  1
  O  O165  1  0.13500000  0.03330000  0.30850000  1
  O  O166  1  0.53330000  0.36500000  0.80850000  1
  O  O167  1  0.86500000  0.96670000  0.30850000  1
  O  O168  1  0.96670000  0.86500000  0.69150000  1
  O  O169  1  0.63500000  0.46670000  0.19150000  1
  O  O170  1  0.03330000  0.13500000  0.69150000  1
  O  O171  1  0.36500000  0.53330000  0.19150000  1
  O  O172  1  0.53330000  0.36500000  0.19150000  1
  O  O173  1  0.86500000  0.96670000  0.69150000  1
  O  O174  1  0.46670000  0.63500000  0.19150000  1
  O  O175  1  0.13500000  0.03330000  0.69150000  1
  O  O176  1  0.06090000  0.25390000  0.37710000  1
  O  O177  1  0.24610000  0.56090000  0.87710000  1
  O  O178  1  0.93910000  0.74610000  0.37710000  1
  O  O179  1  0.75390000  0.43910000  0.87710000  1
  O  O180  1  0.43910000  0.75390000  0.87710000  1
  O  O181  1  0.25390000  0.06090000  0.37710000  1
  O  O182  1  0.56090000  0.24610000  0.87710000  1
  O  O183  1  0.74610000  0.93910000  0.37710000  1
  O  O184  1  0.93910000  0.74610000  0.62290000  1
  O  O185  1  0.75390000  0.43910000  0.12290000  1
  O  O186  1  0.06090000  0.25390000  0.62290000  1
  O  O187  1  0.24610000  0.56090000  0.12290000  1
  O  O188  1  0.56090000  0.24610000  0.12290000  1
  O  O189  1  0.74610000  0.93910000  0.62290000  1
  O  O190  1  0.43910000  0.75390000  0.12290000  1
  O  O191  1  0.25390000  0.06090000  0.62290000  1
  O  O192  1  0.00000000  0.00000000  0.12100000  1
  O  O193  1  0.50000000  0.50000000  0.62100000  1
  O  O194  1  0.00000000  0.00000000  0.87900000  1
  O  O195  1  0.50000000  0.50000000  0.37900000  1
  O  O196  1  0.08130000  0.08130000  0.19780000  1
  O  O197  1  0.41870000  0.58130000  0.69780000  1
  O  O198  1  0.91870000  0.91870000  0.19780000  1
  O  O199  1  0.58130000  0.41870000  0.69780000  1
  O  O200  1  0.91870000  0.91870000  0.80220000  1
  O  O201  1  0.58130000  0.41870000  0.30220000  1
  O  O202  1  0.08130000  0.08130000  0.80220000  1
  O  O203  1  0.41870000  0.58130000  0.30220000  1
  O  O204  1  0.00000000  0.00000000  0.27540000  1
  O  O205  1  0.50000000  0.50000000  0.77540000  1
  O  O206  1  0.00000000  0.00000000  0.72460000  1
  O  O207  1  0.50000000  0.50000000  0.22460000  1
  O  O208  1  0.17650000  0.17650000  0.40870000  1
  O  O209  1  0.32350000  0.67650000  0.90870000  1
  O  O210  1  0.82350000  0.82350000  0.40870000  1
  O  O211  1  0.67650000  0.32350000  0.90870000  1
  O  O212  1  0.82350000  0.82350000  0.59130000  1
  O  O213  1  0.67650000  0.32350000  0.09130000  1
  O  O214  1  0.17650000  0.17650000  0.59130000  1
  O  O215  1  0.32350000  0.67650000  0.09130000  1
  O  O216  1  0.10060000  0.24280000  0.50000000  1
  O  O217  1  0.25720000  0.60060000  0.00000000  1
  O  O218  1  0.89940000  0.75720000  0.50000000  1
  O  O219  1  0.74280000  0.39940000  0.00000000  1
  O  O220  1  0.39940000  0.74280000  0.00000000  1
  O  O221  1  0.24280000  0.10060000  0.50000000  1
  O  O222  1  0.60060000  0.25720000  0.00000000  1
  O  O223  1  0.75720000  0.89940000  0.50000000  1
