# generated using pymatgen
data_Si
_symmetry_space_group_name_H-M   'P 1'
_cell_length_a   18.24600000
_cell_length_b   18.24600000
_cell_length_c   20.55700000
_cell_angle_alpha   90.00000000
_cell_angle_beta   90.00000000
_cell_angle_gamma   90.00000000
_symmetry_Int_Tables_number   1
_chemical_formula_structural   Si
_chemical_formula_sum   Si112
_cell_volume   6843.76481941
_cell_formula_units_Z   112
loop_
 _symmetry_equiv_pos_site_id
 _symmetry_equiv_pos_as_xyz
  1  'x, y, z'
loop_
 _atom_site_type_symbol
 _atom_site_label
 _atom_site_symmetry_multiplicity
 _atom_site_fract_x
 _atom_site_fract_y
 _atom_site_fract_z
 _atom_site_occupancy
  Si  Si0  1  0.13590000  0.74440000  0.11840000  1
  Si  Si1  1  0.75560000  0.63590000  0.61840000  1
  Si  Si2  1  0.86410000  0.25560000  0.11840000  1
  Si  Si3  1  0.24440000  0.36410000  0.61840000  1
  Si  Si4  1  0.36410000  0.24440000  0.61840000  1
  Si  Si5  1  0.74440000  0.13590000  0.11840000  1
  Si  Si6  1  0.63590000  0.75560000  0.61840000  1
  Si  Si7  1  0.25560000  0.86410000  0.11840000  1
  Si  Si8  1  0.86410000  0.25560000  0.88160000  1
  Si  Si9  1  0.24440000  0.36410000  0.38160000  1
  Si  Si10  1  0.13590000  0.74440000  0.88160000  1
  Si  Si11  1  0.75560000  0.63590000  0.38160000  1
  Si  Si12  1  0.63590000  0.75560000  0.38160000  1
  Si  Si13  1  0.25560000  0.86410000  0.88160000  1
  Si  Si14  1  0.36410000  0.24440000  0.38160000  1
  Si  Si15  1  0.74440000  0.13590000  0.88160000  1
  Si  Si16  1  0.13440000  0.74850000  0.26890000  1
  Si  Si17  1  0.75150000  0.63440000  0.76890000  1
  Si  Si18  1  0.86560000  0.25150000  0.26890000  1
  Si  Si19  1  0.24850000  0.36560000  0.76890000  1
  Si  Si20  1  0.36560000  0.24850000  0.76890000  1
  Si  Si21  1  0.74850000  0.13440000  0.26890000  1
  Si  Si22  1  0.63440000  0.75150000  0.76890000  1
  Si  Si23  1  0.25150000  0.86560000  0.26890000  1
  Si  Si24  1  0.86560000  0.25150000  0.73110000  1
  Si  Si25  1  0.24850000  0.36560000  0.23110000  1
  Si  Si26  1  0.13440000  0.74850000  0.73110000  1
  Si  Si27  1  0.75150000  0.63440000  0.23110000  1
  Si  Si28  1  0.63440000  0.75150000  0.23110000  1
  Si  Si29  1  0.25150000  0.86560000  0.73110000  1
  Si  Si30  1  0.36560000  0.24850000  0.23110000  1
  Si  Si31  1  0.74850000  0.13440000  0.73110000  1
  Si  Si32  1  0.02710000  0.22080000  0.07420000  1
  Si  Si33  1  0.27920000  0.52710000  0.57420000  1
  Si  Si34  1  0.97290000  0.77920000  0.07420000  1
  Si  Si35  1  0.72080000  0.47290000  0.57420000  1
  Si  Si36  1  0.47290000  0.72080000  0.57420000  1
  Si  Si37  1  0.22080000  0.02710000  0.07420000  1
  Si  Si38  1  0.52710000  0.27920000  0.57420000  1
  Si  Si39  1  0.77920000  0.97290000  0.07420000  1
  Si  Si40  1  0.97290000  0.77920000  0.92580000  1
  Si  Si41  1  0.72080000  0.47290000  0.42580000  1
  Si  Si42  1  0.02710000  0.22080000  0.92580000  1
  Si  Si43  1  0.27920000  0.52710000  0.42580000  1
  Si  Si44  1  0.52710000  0.27920000  0.42580000  1
  Si  Si45  1  0.77920000  0.97290000  0.92580000  1
  Si  Si46  1  0.47290000  0.72080000  0.42580000  1
  Si  Si47  1  0.22080000  0.02710000  0.92580000  1
  Si  Si48  1  0.13160000  0.25080000  0.18770000  1
  Si  Si49  1  0.24920000  0.63160000  0.68770000  1
  Si  Si50  1  0.86840000  0.74920000  0.18770000  1
  Si  Si51  1  0.75080000  0.36840000  0.68770000  1
  Si  Si52  1  0.36840000  0.75080000  0.68770000  1
  Si  Si53  1  0.25080000  0.13160000  0.18770000  1
  Si  Si54  1  0.63160000  0.24920000  0.68770000  1
  Si  Si55  1  0.74920000  0.86840000  0.18770000  1
  Si  Si56  1  0.86840000  0.74920000  0.81230000  1
  Si  Si57  1  0.75080000  0.36840000  0.31230000  1
  Si  Si58  1  0.13160000  0.25080000  0.81230000  1
  Si  Si59  1  0.24920000  0.63160000  0.31230000  1
  Si  Si60  1  0.63160000  0.24920000  0.31230000  1
  Si  Si61  1  0.74920000  0.86840000  0.81230000  1
  Si  Si62  1  0.36840000  0.75080000  0.31230000  1
  Si  Si63  1  0.25080000  0.13160000  0.81230000  1
  Si  Si64  1  0.02990000  0.22320000  0.30900000  1
  Si  Si65  1  0.27680000  0.52990000  0.80900000  1
  Si  Si66  1  0.97010000  0.77680000  0.30900000  1
  Si  Si67  1  0.72320000  0.47010000  0.80900000  1
  Si  Si68  1  0.47010000  0.72320000  0.80900000  1
  Si  Si69  1  0.22320000  0.02990000  0.30900000  1
  Si  Si70  1  0.52990000  0.27680000  0.80900000  1
  Si  Si71  1  0.77680000  0.97010000  0.30900000  1
  Si  Si72  1  0.97010000  0.77680000  0.69100000  1
  Si  Si73  1  0.72320000  0.47010000  0.19100000  1
  Si  Si74  1  0.02990000  0.22320000  0.69100000  1
  Si  Si75  1  0.27680000  0.52990000  0.19100000  1
  Si  Si76  1  0.52990000  0.27680000  0.19100000  1
  Si  Si77  1  0.77680000  0.97010000  0.69100000  1
  Si  Si78  1  0.47010000  0.72320000  0.19100000  1
  Si  Si79  1  0.22320000  0.02990000  0.69100000  1
  Si  Si80  1  0.12950000  0.24850000  0.42610000  1
  Si  Si81  1  0.25150000  0.62950000  0.92610000  1
  Si  Si82  1  0.87050000  0.75150000  0.42610000  1
  Si  Si83  1  0.74850000  0.37050000  0.92610000  1
  Si  Si84  1  0.37050000  0.74850000  0.92610000  1
  Si  Si85  1  0.24850000  0.12950000  0.42610000  1
  Si  Si86  1  0.62950000  0.25150000  0.92610000  1
  Si  Si87  1  0.75150000  0.87050000  0.42610000  1
  Si  Si88  1  0.87050000  0.75150000  0.57390000  1
  Si  Si89  1  0.74850000  0.37050000  0.07390000  1
  Si  Si90  1  0.12950000  0.24850000  0.57390000  1
  Si  Si91  1  0.25150000  0.62950000  0.07390000  1
  Si  Si92  1  0.62950000  0.25150000  0.07390000  1
  Si  Si93  1  0.75150000  0.87050000  0.57390000  1
  Si  Si94  1  0.37050000  0.74850000  0.07390000  1
  Si  Si95  1  0.24850000  0.12950000  0.57390000  1
  Si  Si96  1  0.06220000  0.06220000  0.12320000  1
  Si  Si97  1  0.43780000  0.56220000  0.62320000  1
  Si  Si98  1  0.93780000  0.93780000  0.12320000  1
  Si  Si99  1  0.56220000  0.43780000  0.62320000  1
  Si  Si100  1  0.93780000  0.93780000  0.87680000  1
  Si  Si101  1  0.56220000  0.43780000  0.37680000  1
  Si  Si102  1  0.06220000  0.06220000  0.87680000  1
  Si  Si103  1  0.43780000  0.56220000  0.37680000  1
  Si  Si104  1  0.06220000  0.06220000  0.27240000  1
  Si  Si105  1  0.43780000  0.56220000  0.77240000  1
  Si  Si106  1  0.93780000  0.93780000  0.27240000  1
  Si  Si107  1  0.56220000  0.43780000  0.77240000  1
  Si  Si108  1  0.93780000  0.93780000  0.72760000  1
  Si  Si109  1  0.56220000  0.43780000  0.22760000  1
  Si  Si110  1  0.06220000  0.06220000  0.72760000  1
  Si  Si111  1  0.43780000  0.56220000  0.22760000  1
