# generated using pymatgen
data_SiO4
_symmetry_space_group_name_H-M   'P 1'
_cell_length_a   12.87400000
_cell_length_b   12.87400000
_cell_length_c   25.67400000
_cell_angle_alpha   90.00000000
_cell_angle_beta   90.00000000
_cell_angle_gamma   90.00000000
_symmetry_Int_Tables_number   1
_chemical_formula_structural   SiO4
_chemical_formula_sum   'Si1 O4'
_cell_volume   4255.20557642
_cell_formula_units_Z   1
loop_
 _symmetry_equiv_pos_site_id
 _symmetry_equiv_pos_as_xyz
  1  'x, y, z'
loop_
 _atom_site_type_symbol
 _atom_site_label
 _atom_site_symmetry_multiplicity
 _atom_site_fract_x
 _atom_site_fract_y
 _atom_site_fract_z
 _atom_site_occupancy
  Si  Si0  1  0.11850000  0.11680000  0.93880000  1
  O  O1  1  0.14510000  0.11950000  1.00000000  1
  O  O2  1  0.13370000  0.00000000  0.91750000  1
  O  O3  1  0.00000000  0.15240000  0.92980000  1
  O  O4  1  0.19590000  0.19450000  0.90870000  1
