# generated using pymatgen
data_O2
_symmetry_space_group_name_H-M   'P 1'
_cell_length_a   12.87400000
_cell_length_b   12.87400000
_cell_length_c   25.67400000
_cell_angle_alpha   90.00000000
_cell_angle_beta   90.00000000
_cell_angle_gamma   90.00000000
_symmetry_Int_Tables_number   1
_chemical_formula_structural   O2
_chemical_formula_sum   O128
_cell_volume   4255.20557642
_cell_formula_units_Z   64
loop_
 _symmetry_equiv_pos_site_id
 _symmetry_equiv_pos_as_xyz
  1  'x, y, z'
loop_
 _atom_site_type_symbol
 _atom_site_label
 _atom_site_symmetry_multiplicity
 _atom_site_fract_x
 _atom_site_fract_y
 _atom_site_fract_z
 _atom_site_occupancy
  O  O0  1  0.14510000  0.11950000  0.00000000  1
  O  O1  1  0.88050000  0.14510000  0.50000000  1
  O  O2  1  0.85490000  0.88050000  0.00000000  1
  O  O3  1  0.11950000  0.85490000  0.50000000  1
  O  O4  1  0.85490000  0.11950000  0.00000000  1
  O  O5  1  0.11950000  0.14510000  0.50000000  1
  O  O6  1  0.14510000  0.88050000  0.00000000  1
  O  O7  1  0.88050000  0.85490000  0.50000000  1
  O  O8  1  0.13370000  0.00000000  0.08250000  1
  O  O9  1  0.00000000  0.13370000  0.58250000  1
  O  O10  1  0.86630000  0.00000000  0.08250000  1
  O  O11  1  0.00000000  0.86630000  0.58250000  1
  O  O12  1  0.86630000  0.00000000  0.91750000  1
  O  O13  1  0.00000000  0.86630000  0.41750000  1
  O  O14  1  0.13370000  0.00000000  0.91750000  1
  O  O15  1  0.00000000  0.13370000  0.41750000  1
  O  O16  1  0.00000000  0.15240000  0.07020000  1
  O  O17  1  0.84760000  0.00000000  0.57020000  1
  O  O18  1  0.00000000  0.84760000  0.07020000  1
  O  O19  1  0.15240000  0.00000000  0.57020000  1
  O  O20  1  0.00000000  0.84760000  0.92980000  1
  O  O21  1  0.15240000  0.00000000  0.42980000  1
  O  O22  1  0.00000000  0.15240000  0.92980000  1
  O  O23  1  0.84760000  0.00000000  0.42980000  1
  O  O24  1  0.19590000  0.19450000  0.09130000  1
  O  O25  1  0.80550000  0.19590000  0.59130000  1
  O  O26  1  0.80410000  0.80550000  0.09130000  1
  O  O27  1  0.19450000  0.80410000  0.59130000  1
  O  O28  1  0.80410000  0.19450000  0.09130000  1
  O  O29  1  0.19450000  0.19590000  0.59130000  1
  O  O30  1  0.19590000  0.80550000  0.09130000  1
  O  O31  1  0.80550000  0.80410000  0.59130000  1
  O  O32  1  0.80410000  0.80550000  0.90870000  1
  O  O33  1  0.19450000  0.80410000  0.40870000  1
  O  O34  1  0.19590000  0.19450000  0.90870000  1
  O  O35  1  0.80550000  0.19590000  0.40870000  1
  O  O36  1  0.19590000  0.80550000  0.90870000  1
  O  O37  1  0.80550000  0.80410000  0.40870000  1
  O  O38  1  0.80410000  0.19450000  0.90870000  1
  O  O39  1  0.19450000  0.19590000  0.40870000  1
  O  O40  1  0.39800000  0.16370000  0.91060000  1
  O  O41  1  0.83630000  0.39800000  0.41060000  1
  O  O42  1  0.60200000  0.83630000  0.91060000  1
  O  O43  1  0.16370000  0.60200000  0.41060000  1
  O  O44  1  0.60200000  0.16370000  0.91060000  1
  O  O45  1  0.16370000  0.39800000  0.41060000  1
  O  O46  1  0.39800000  0.83630000  0.91060000  1
  O  O47  1  0.83630000  0.60200000  0.41060000  1
  O  O48  1  0.60200000  0.83630000  0.08940000  1
  O  O49  1  0.16370000  0.60200000  0.58940000  1
  O  O50  1  0.39800000  0.16370000  0.08940000  1
  O  O51  1  0.83630000  0.39800000  0.58940000  1
  O  O52  1  0.39800000  0.83630000  0.08940000  1
  O  O53  1  0.83630000  0.60200000  0.58940000  1
  O  O54  1  0.60200000  0.16370000  0.08940000  1
  O  O55  1  0.16370000  0.39800000  0.58940000  1
  O  O56  1  0.32160000  0.33550000  0.94890000  1
  O  O57  1  0.66450000  0.32160000  0.44890000  1
  O  O58  1  0.67840000  0.66450000  0.94890000  1
  O  O59  1  0.33550000  0.67840000  0.44890000  1
  O  O60  1  0.67840000  0.33550000  0.94890000  1
  O  O61  1  0.33550000  0.32160000  0.44890000  1
  O  O62  1  0.32160000  0.66450000  0.94890000  1
  O  O63  1  0.66450000  0.67840000  0.44890000  1
  O  O64  1  0.67840000  0.66450000  0.05110000  1
  O  O65  1  0.33550000  0.67840000  0.55110000  1
  O  O66  1  0.32160000  0.33550000  0.05110000  1
  O  O67  1  0.66450000  0.32160000  0.55110000  1
  O  O68  1  0.32160000  0.66450000  0.05110000  1
  O  O69  1  0.66450000  0.67840000  0.55110000  1
  O  O70  1  0.67840000  0.33550000  0.05110000  1
  O  O71  1  0.33550000  0.32160000  0.55110000  1
  O  O72  1  0.31640000  0.30400000  0.84780000  1
  O  O73  1  0.69600000  0.31640000  0.34780000  1
  O  O74  1  0.68360000  0.69600000  0.84780000  1
  O  O75  1  0.30400000  0.68360000  0.34780000  1
  O  O76  1  0.68360000  0.30400000  0.84780000  1
  O  O77  1  0.30400000  0.31640000  0.34780000  1
  O  O78  1  0.31640000  0.69600000  0.84780000  1
  O  O79  1  0.69600000  0.68360000  0.34780000  1
  O  O80  1  0.68360000  0.69600000  0.15220000  1
  O  O81  1  0.30400000  0.68360000  0.65220000  1
  O  O82  1  0.31640000  0.30400000  0.15220000  1
  O  O83  1  0.69600000  0.31640000  0.65220000  1
  O  O84  1  0.31640000  0.69600000  0.15220000  1
  O  O85  1  0.69600000  0.68360000  0.65220000  1
  O  O86  1  0.68360000  0.30400000  0.15220000  1
  O  O87  1  0.30400000  0.31640000  0.65220000  1
  O  O88  1  0.50000000  0.00000000  0.05730000  1
  O  O89  1  0.00000000  0.50000000  0.55730000  1
  O  O90  1  0.50000000  0.00000000  0.94270000  1
  O  O91  1  0.00000000  0.50000000  0.44270000  1
  O  O92  1  0.50000000  0.16850000  0.00000000  1
  O  O93  1  0.83150000  0.50000000  0.50000000  1
  O  O94  1  0.50000000  0.83150000  0.00000000  1
  O  O95  1  0.16850000  0.50000000  0.50000000  1
  O  O96  1  0.50000000  0.33260000  0.00000000  1
  O  O97  1  0.66740000  0.50000000  0.50000000  1
  O  O98  1  0.50000000  0.66740000  0.00000000  1
  O  O99  1  0.33260000  0.50000000  0.50000000  1
  O  O100  1  0.38410000  0.50000000  0.00000000  1
  O  O101  1  0.50000000  0.38410000  0.50000000  1
  O  O102  1  0.61590000  0.50000000  0.00000000  1
  O  O103  1  0.50000000  0.61590000  0.50000000  1
  O  O104  1  0.35300000  0.35300000  0.25000000  1
  O  O105  1  0.64700000  0.35300000  0.75000000  1
  O  O106  1  0.64700000  0.64700000  0.25000000  1
  O  O107  1  0.35300000  0.64700000  0.75000000  1
  O  O108  1  0.64700000  0.35300000  0.25000000  1
  O  O109  1  0.35300000  0.35300000  0.75000000  1
  O  O110  1  0.35300000  0.64700000  0.25000000  1
  O  O111  1  0.64700000  0.64700000  0.75000000  1
  O  O112  1  0.50000000  0.37260000  0.17950000  1
  O  O113  1  0.62740000  0.50000000  0.67950000  1
  O  O114  1  0.50000000  0.62740000  0.17950000  1
  O  O115  1  0.37260000  0.50000000  0.67950000  1
  O  O116  1  0.50000000  0.62740000  0.82050000  1
  O  O117  1  0.37260000  0.50000000  0.32050000  1
  O  O118  1  0.50000000  0.37260000  0.82050000  1
  O  O119  1  0.62740000  0.50000000  0.32050000  1
  O  O120  1  0.34070000  0.50000000  0.17920000  1
  O  O121  1  0.50000000  0.34070000  0.67920000  1
  O  O122  1  0.65930000  0.50000000  0.17920000  1
  O  O123  1  0.50000000  0.65930000  0.67920000  1
  O  O124  1  0.65930000  0.50000000  0.82080000  1
  O  O125  1  0.50000000  0.65930000  0.32080000  1
  O  O126  1  0.34070000  0.50000000  0.82080000  1
  O  O127  1  0.50000000  0.34070000  0.32080000  1
