# generated using pymatgen
data_SiO4
_symmetry_space_group_name_H-M   'P 1'
_cell_length_a   9.25000000
_cell_length_b   9.25000000
_cell_length_c   10.08300000
_cell_angle_alpha   90.00000000
_cell_angle_beta   90.00000000
_cell_angle_gamma   90.00000000
_symmetry_Int_Tables_number   1
_chemical_formula_structural   SiO4
_chemical_formula_sum   'Si1 O4'
_cell_volume   862.72668750
_cell_formula_units_Z   1
loop_
 _symmetry_equiv_pos_site_id
 _symmetry_equiv_pos_as_xyz
  1  'x, y, z'
loop_
 _atom_site_type_symbol
 _atom_site_label
 _atom_site_symmetry_multiplicity
 _atom_site_fract_x
 _atom_site_fract_y
 _atom_site_fract_z
 _atom_site_occupancy
  Si  Si0  1  0.91310000  0.61210000  0.37280000  1
  O  O1  1  0.97920000  0.76220000  0.42640000  1
  O  O2  1  0.74390000  0.63330000  0.34100000  1
  O  O3  1  0.93460000  0.49280000  0.48740000  1
  O  O4  1  0.99280000  0.56540000  0.23740000  1
