# generated using pymatgen
data_O2
_symmetry_space_group_name_H-M   'P 1'
_cell_length_a   9.25000000
_cell_length_b   9.25000000
_cell_length_c   10.08300000
_cell_angle_alpha   90.00000000
_cell_angle_beta   90.00000000
_cell_angle_gamma   90.00000000
_symmetry_Int_Tables_number   1
_chemical_formula_structural   O2
_chemical_formula_sum   O32
_cell_volume   862.72668750
_cell_formula_units_Z   16
loop_
 _symmetry_equiv_pos_site_id
 _symmetry_equiv_pos_as_xyz
  1  'x, y, z'
loop_
 _atom_site_type_symbol
 _atom_site_label
 _atom_site_symmetry_multiplicity
 _atom_site_fract_x
 _atom_site_fract_y
 _atom_site_fract_z
 _atom_site_occupancy
  O  O0  1  0.26220000  0.52080000  0.17640000  1
  O  O1  1  0.73780000  0.47920000  0.67640000  1
  O  O2  1  0.97920000  0.76220000  0.42640000  1
  O  O3  1  0.02080000  0.23780000  0.92640000  1
  O  O4  1  0.23780000  0.02080000  0.07360000  1
  O  O5  1  0.76220000  0.97920000  0.57360000  1
  O  O6  1  0.52080000  0.26220000  0.82360000  1
  O  O7  1  0.47920000  0.73780000  0.32360000  1
  O  O8  1  0.46000000  0.46000000  0.00000000  1
  O  O9  1  0.54000000  0.54000000  0.50000000  1
  O  O10  1  0.04000000  0.96000000  0.25000000  1
  O  O11  1  0.96000000  0.04000000  0.75000000  1
  O  O12  1  0.36670000  0.25610000  0.15900000  1
  O  O13  1  0.63330000  0.74390000  0.65900000  1
  O  O14  1  0.24390000  0.86670000  0.40900000  1
  O  O15  1  0.75610000  0.13330000  0.90900000  1
  O  O16  1  0.13330000  0.75610000  0.09100000  1
  O  O17  1  0.86670000  0.24390000  0.59100000  1
  O  O18  1  0.25610000  0.36670000  0.84100000  1
  O  O19  1  0.74390000  0.63330000  0.34100000  1
  O  O20  1  0.53100000  0.46900000  0.25000000  1
  O  O21  1  0.46900000  0.53100000  0.75000000  1
  O  O22  1  0.03100000  0.03100000  0.50000000  1
  O  O23  1  0.96900000  0.96900000  0.00000000  1
  O  O24  1  0.43460000  0.00720000  0.26260000  1
  O  O25  1  0.56540000  0.99280000  0.76260000  1
  O  O26  1  0.49280000  0.93460000  0.51260000  1
  O  O27  1  0.50720000  0.06540000  0.01260000  1
  O  O28  1  0.06540000  0.50720000  0.98740000  1
  O  O29  1  0.93460000  0.49280000  0.48740000  1
  O  O30  1  0.00720000  0.43460000  0.73740000  1
  O  O31  1  0.99280000  0.56540000  0.23740000  1
