# generated using pymatgen
data_Si
_symmetry_space_group_name_H-M   'P 1'
_cell_length_a   9.25000000
_cell_length_b   9.25000000
_cell_length_c   10.08300000
_cell_angle_alpha   90.00000000
_cell_angle_beta   90.00000000
_cell_angle_gamma   90.00000000
_symmetry_Int_Tables_number   1
_chemical_formula_structural   Si
_chemical_formula_sum   Si16
_cell_volume   862.72668750
_cell_formula_units_Z   16
loop_
 _symmetry_equiv_pos_site_id
 _symmetry_equiv_pos_as_xyz
  1  'x, y, z'
loop_
 _atom_site_type_symbol
 _atom_site_label
 _atom_site_symmetry_multiplicity
 _atom_site_fract_x
 _atom_site_fract_y
 _atom_site_fract_z
 _atom_site_occupancy
  Si  Si0  1  0.40440000  0.42540000  0.14800000  1
  Si  Si1  1  0.59560000  0.57460000  0.64800000  1
  Si  Si2  1  0.07460000  0.90440000  0.39800000  1
  Si  Si3  1  0.92540000  0.09560000  0.89800000  1
  Si  Si4  1  0.09560000  0.92540000  0.10200000  1
  Si  Si5  1  0.90440000  0.07460000  0.60200000  1
  Si  Si6  1  0.42540000  0.40440000  0.85200000  1
  Si  Si7  1  0.57460000  0.59560000  0.35200000  1
  Si  Si8  1  0.38790000  0.08690000  0.12720000  1
  Si  Si9  1  0.61210000  0.91310000  0.62720000  1
  Si  Si10  1  0.41310000  0.88790000  0.37720000  1
  Si  Si11  1  0.58690000  0.11210000  0.87720000  1
  Si  Si12  1  0.11210000  0.58690000  0.12280000  1
  Si  Si13  1  0.88790000  0.41310000  0.62280000  1
  Si  Si14  1  0.08690000  0.38790000  0.87280000  1
  Si  Si15  1  0.91310000  0.61210000  0.37280000  1
