# generated using pymatgen
data_SiO4
_symmetry_space_group_name_H-M   'P 1'
_cell_length_a   25.84000000
_cell_length_b   25.84000000
_cell_length_c   25.84000000
_cell_angle_alpha   90.00000000
_cell_angle_beta   90.00000000
_cell_angle_gamma   90.00000000
_symmetry_Int_Tables_number   1
_chemical_formula_structural   SiO4
_chemical_formula_sum   'Si1 O4'
_cell_volume   17253.51270400
_cell_formula_units_Z   1
loop_
 _symmetry_equiv_pos_site_id
 _symmetry_equiv_pos_as_xyz
  1  'x, y, z'
loop_
 _atom_site_type_symbol
 _atom_site_label
 _atom_site_symmetry_multiplicity
 _atom_site_fract_x
 _atom_site_fract_y
 _atom_site_fract_z
 _atom_site_occupancy
  Si  Si0  1  0.27120000  0.81370000  0.55950000  1
  O  O1  1  0.26450000  0.83080000  0.50000000  1
  O  O2  1  0.22510000  0.77490000  0.57540000  1
  O  O3  1  0.32600000  0.78490000  0.56700000  1
  O  O4  1  0.26890000  0.86410000  0.59600000  1
