# generated using pymatgen
data_Si
_symmetry_space_group_name_H-M   'P 1'
_cell_length_a   18.53100000
_cell_length_b   13.35500000
_cell_length_c   9.63600000
_cell_angle_alpha   90.00000000
_cell_angle_beta   90.00000000
_cell_angle_gamma   90.00000000
_symmetry_Int_Tables_number   1
_chemical_formula_structural   Si
_chemical_formula_sum   Si48
_cell_volume   2384.73178218
_cell_formula_units_Z   48
loop_
 _symmetry_equiv_pos_site_id
 _symmetry_equiv_pos_as_xyz
  1  'x, y, z'
loop_
 _atom_site_type_symbol
 _atom_site_label
 _atom_site_symmetry_multiplicity
 _atom_site_fract_x
 _atom_site_fract_y
 _atom_site_fract_z
 _atom_site_occupancy
  Si  Si0  1  0.08470000  0.57360000  0.37120000  1
  Si  Si1  1  0.58470000  0.07360000  0.37120000  1
  Si  Si2  1  0.91530000  0.57360000  0.37120000  1
  Si  Si3  1  0.41530000  0.07360000  0.37120000  1
  Si  Si4  1  0.08470000  0.92640000  0.87120000  1
  Si  Si5  1  0.58470000  0.42640000  0.87120000  1
  Si  Si6  1  0.91530000  0.92640000  0.87120000  1
  Si  Si7  1  0.41530000  0.42640000  0.87120000  1
  Si  Si8  1  0.91530000  0.42640000  0.62880000  1
  Si  Si9  1  0.41530000  0.92640000  0.62880000  1
  Si  Si10  1  0.08470000  0.42640000  0.62880000  1
  Si  Si11  1  0.58470000  0.92640000  0.62880000  1
  Si  Si12  1  0.91530000  0.07360000  0.12880000  1
  Si  Si13  1  0.41530000  0.57360000  0.12880000  1
  Si  Si14  1  0.08470000  0.07360000  0.12880000  1
  Si  Si15  1  0.58470000  0.57360000  0.12880000  1
  Si  Si16  1  0.18170000  0.52710000  0.83800000  1
  Si  Si17  1  0.68170000  0.02710000  0.83800000  1
  Si  Si18  1  0.81830000  0.52710000  0.83800000  1
  Si  Si19  1  0.31830000  0.02710000  0.83800000  1
  Si  Si20  1  0.18170000  0.97290000  0.33800000  1
  Si  Si21  1  0.68170000  0.47290000  0.33800000  1
  Si  Si22  1  0.81830000  0.97290000  0.33800000  1
  Si  Si23  1  0.31830000  0.47290000  0.33800000  1
  Si  Si24  1  0.81830000  0.47290000  0.16200000  1
  Si  Si25  1  0.31830000  0.97290000  0.16200000  1
  Si  Si26  1  0.18170000  0.47290000  0.16200000  1
  Si  Si27  1  0.68170000  0.97290000  0.16200000  1
  Si  Si28  1  0.81830000  0.02710000  0.66200000  1
  Si  Si29  1  0.31830000  0.52710000  0.66200000  1
  Si  Si30  1  0.18170000  0.02710000  0.66200000  1
  Si  Si31  1  0.68170000  0.52710000  0.66200000  1
  Si  Si32  1  0.30040000  0.74240000  0.13490000  1
  Si  Si33  1  0.80040000  0.24240000  0.13490000  1
  Si  Si34  1  0.69960000  0.74240000  0.13490000  1
  Si  Si35  1  0.19960000  0.24240000  0.13490000  1
  Si  Si36  1  0.30040000  0.75760000  0.63490000  1
  Si  Si37  1  0.80040000  0.25760000  0.63490000  1
  Si  Si38  1  0.69960000  0.75760000  0.63490000  1
  Si  Si39  1  0.19960000  0.25760000  0.63490000  1
  Si  Si40  1  0.69960000  0.25760000  0.86510000  1
  Si  Si41  1  0.19960000  0.75760000  0.86510000  1
  Si  Si42  1  0.30040000  0.25760000  0.86510000  1
  Si  Si43  1  0.80040000  0.75760000  0.86510000  1
  Si  Si44  1  0.69960000  0.24240000  0.36510000  1
  Si  Si45  1  0.19960000  0.74240000  0.36510000  1
  Si  Si46  1  0.30040000  0.24240000  0.36510000  1
  Si  Si47  1  0.80040000  0.74240000  0.36510000  1
