# generated using pymatgen
data_SiO4
_symmetry_space_group_name_H-M   'P 1'
_cell_length_a   27.84490000
_cell_length_b   20.01500000
_cell_length_c   19.59650000
_cell_angle_alpha   90.00000000
_cell_angle_beta   93.20000000
_cell_angle_gamma   90.00000000
_symmetry_Int_Tables_number   1
_chemical_formula_structural   SiO4
_chemical_formula_sum   'Si1 O4'
_cell_volume   10904.40750062
_cell_formula_units_Z   1
loop_
 _symmetry_equiv_pos_site_id
 _symmetry_equiv_pos_as_xyz
  1  'x, y, z'
loop_
 _atom_site_type_symbol
 _atom_site_label
 _atom_site_symmetry_multiplicity
 _atom_site_fract_x
 _atom_site_fract_y
 _atom_site_fract_z
 _atom_site_occupancy
  Si  Si0  1  0.50880000  0.92280000  0.25640000  1
  O  O1  1  0.50373000  0.88233000  0.18541000  1
  O  O2  1  0.55258000  0.89213000  0.30360000  1
  O  O3  1  0.45993000  0.91706000  0.29617000  1
  O  O4  1  0.51993000  1.00000000  0.24062000  1
