# generated using pymatgen
data_SiO4
_symmetry_space_group_name_H-M   'P 1'
_cell_length_a   27.84490000
_cell_length_b   20.01500000
_cell_length_c   19.59650000
_cell_angle_alpha   90.00000000
_cell_angle_beta   93.20000000
_cell_angle_gamma   90.00000000
_symmetry_Int_Tables_number   1
_chemical_formula_structural   SiO4
_chemical_formula_sum   'Si1 O4'
_cell_volume   10904.40750062
_cell_formula_units_Z   1
loop_
 _symmetry_equiv_pos_site_id
 _symmetry_equiv_pos_as_xyz
  1  'x, y, z'
loop_
 _atom_site_type_symbol
 _atom_site_label
 _atom_site_symmetry_multiplicity
 _atom_site_fract_x
 _atom_site_fract_y
 _atom_site_fract_z
 _atom_site_occupancy
  Si  Si0  1  0.83420000  0.18960000  0.41160000  1
  O  O1  1  0.87778000  0.19906000  0.36188000  1
  O  O2  1  0.80812000  0.11879000  0.39733000  1
  O  O3  1  0.79555000  0.24890000  0.40086000  1
  O  O4  1  0.85573000  0.19102000  0.48965000  1
