# generated using pymatgen
data_O2
_symmetry_space_group_name_H-M   'P 1'
_cell_length_a   27.84490000
_cell_length_b   20.01500000
_cell_length_c   19.59650000
_cell_angle_alpha   90.00000000
_cell_angle_beta   93.20000000
_cell_angle_gamma   90.00000000
_symmetry_Int_Tables_number   1
_chemical_formula_structural   O2
_chemical_formula_sum   O384
_cell_volume   10904.40750062
_cell_formula_units_Z   192
loop_
 _symmetry_equiv_pos_site_id
 _symmetry_equiv_pos_as_xyz
  1  'x, y, z'
loop_
 _atom_site_type_symbol
 _atom_site_label
 _atom_site_symmetry_multiplicity
 _atom_site_fract_x
 _atom_site_fract_y
 _atom_site_fract_z
 _atom_site_occupancy
  O  O0  1  0.11719000  0.11694000  0.74194000  1
  O  O1  1  0.11719000  0.88306000  0.74194000  1
  O  O2  1  0.88281000  0.88306000  0.25806000  1
  O  O3  1  0.88281000  0.11694000  0.25806000  1
  O  O4  1  0.61719000  0.61694000  0.74194000  1
  O  O5  1  0.61719000  0.38306000  0.74194000  1
  O  O6  1  0.38281000  0.38306000  0.25806000  1
  O  O7  1  0.38281000  0.61694000  0.25806000  1
  O  O8  1  0.12222000  0.19906000  0.63812000  1
  O  O9  1  0.12222000  0.80094000  0.63812000  1
  O  O10  1  0.87778000  0.80094000  0.36188000  1
  O  O11  1  0.87778000  0.19906000  0.36188000  1
  O  O12  1  0.62222000  0.69906000  0.63812000  1
  O  O13  1  0.62222000  0.30094000  0.63812000  1
  O  O14  1  0.37778000  0.30094000  0.36188000  1
  O  O15  1  0.37778000  0.69906000  0.36188000  1
  O  O16  1  0.04499000  0.19805000  0.71044000  1
  O  O17  1  0.04499000  0.80195000  0.71044000  1
  O  O18  1  0.95501000  0.80195000  0.28956000  1
  O  O19  1  0.95501000  0.19805000  0.28956000  1
  O  O20  1  0.54499000  0.69805000  0.71044000  1
  O  O21  1  0.54499000  0.30195000  0.71044000  1
  O  O22  1  0.45501000  0.30195000  0.28956000  1
  O  O23  1  0.45501000  0.69805000  0.28956000  1
  O  O24  1  0.12720000  0.24588000  0.76281000  1
  O  O25  1  0.12720000  0.75412000  0.76281000  1
  O  O26  1  0.87280000  0.75412000  0.23719000  1
  O  O27  1  0.87280000  0.24588000  0.23719000  1
  O  O28  1  0.62720000  0.74588000  0.76281000  1
  O  O29  1  0.62720000  0.25412000  0.76281000  1
  O  O30  1  0.37280000  0.25412000  0.23719000  1
  O  O31  1  0.37280000  0.74588000  0.23719000  1
  O  O32  1  0.94924000  0.32341000  0.08986000  1
  O  O33  1  0.94924000  0.67659000  0.08986000  1
  O  O34  1  0.05076000  0.67659000  0.91014000  1
  O  O35  1  0.05076000  0.32341000  0.91014000  1
  O  O36  1  0.44924000  0.82341000  0.08986000  1
  O  O37  1  0.44924000  0.17659000  0.08986000  1
  O  O38  1  0.55076000  0.17659000  0.91014000  1
  O  O39  1  0.55076000  0.82341000  0.91014000  1
  O  O40  1  0.00373000  0.38233000  0.18541000  1
  O  O41  1  0.00373000  0.61767000  0.18541000  1
  O  O42  1  0.99627000  0.61767000  0.81459000  1
  O  O43  1  0.99627000  0.38233000  0.81459000  1
  O  O44  1  0.50373000  0.88233000  0.18541000  1
  O  O45  1  0.50373000  0.11767000  0.18541000  1
  O  O46  1  0.49627000  0.11767000  0.81459000  1
  O  O47  1  0.49627000  0.88233000  0.81459000  1
  O  O48  1  0.04223000  0.31103000  0.08918000  1
  O  O49  1  0.04223000  0.68897000  0.08918000  1
  O  O50  1  0.95777000  0.68897000  0.91082000  1
  O  O51  1  0.95777000  0.31103000  0.91082000  1
  O  O52  1  0.54223000  0.81103000  0.08918000  1
  O  O53  1  0.54223000  0.18897000  0.08918000  1
  O  O54  1  0.45777000  0.18897000  0.91082000  1
  O  O55  1  0.45777000  0.81103000  0.91082000  1
  O  O56  1  0.99565000  0.25122000  0.18503000  1
  O  O57  1  0.99565000  0.74878000  0.18503000  1
  O  O58  1  0.00435000  0.74878000  0.81497000  1
  O  O59  1  0.00435000  0.25122000  0.81497000  1
  O  O60  1  0.49565000  0.75122000  0.18503000  1
  O  O61  1  0.49565000  0.24878000  0.18503000  1
  O  O62  1  0.50435000  0.24878000  0.81497000  1
  O  O63  1  0.50435000  0.75122000  0.81497000  1
  O  O64  1  0.13215000  0.18133000  0.24547000  1
  O  O65  1  0.13215000  0.81867000  0.24547000  1
  O  O66  1  0.86785000  0.81867000  0.75453000  1
  O  O67  1  0.86785000  0.18133000  0.75453000  1
  O  O68  1  0.63215000  0.68133000  0.24547000  1
  O  O69  1  0.63215000  0.31867000  0.24547000  1
  O  O70  1  0.36785000  0.31867000  0.75453000  1
  O  O71  1  0.36785000  0.68133000  0.75453000  1
  O  O72  1  0.14057000  0.12271000  0.12636000  1
  O  O73  1  0.14057000  0.87729000  0.12636000  1
  O  O74  1  0.85943000  0.87729000  0.87364000  1
  O  O75  1  0.85943000  0.12271000  0.87364000  1
  O  O76  1  0.64057000  0.62271000  0.12636000  1
  O  O77  1  0.64057000  0.37729000  0.12636000  1
  O  O78  1  0.35943000  0.37729000  0.87364000  1
  O  O79  1  0.35943000  0.62271000  0.87364000  1
  O  O80  1  0.20718000  0.20670000  0.17362000  1
  O  O81  1  0.20718000  0.79330000  0.17362000  1
  O  O82  1  0.79282000  0.79330000  0.82638000  1
  O  O83  1  0.79282000  0.20670000  0.82638000  1
  O  O84  1  0.70718000  0.70670000  0.17362000  1
  O  O85  1  0.70718000  0.29330000  0.17362000  1
  O  O86  1  0.29282000  0.29330000  0.82638000  1
  O  O87  1  0.29282000  0.70670000  0.82638000  1
  O  O88  1  0.12182000  0.25134000  0.13287000  1
  O  O89  1  0.12182000  0.74866000  0.13287000  1
  O  O90  1  0.87818000  0.74866000  0.86713000  1
  O  O91  1  0.87818000  0.25134000  0.86713000  1
  O  O92  1  0.62182000  0.75134000  0.13287000  1
  O  O93  1  0.62182000  0.24866000  0.13287000  1
  O  O94  1  0.37818000  0.24866000  0.86713000  1
  O  O95  1  0.37818000  0.75134000  0.86713000  1
  O  O96  1  0.13550000  0.11026000  0.87479000  1
  O  O97  1  0.13550000  0.88974000  0.87479000  1
  O  O98  1  0.86450000  0.88974000  0.12521000  1
  O  O99  1  0.86450000  0.11026000  0.12521000  1
  O  O100  1  0.63550000  0.61026000  0.87479000  1
  O  O101  1  0.63550000  0.38974000  0.87479000  1
  O  O102  1  0.36450000  0.38974000  0.12521000  1
  O  O103  1  0.36450000  0.61026000  0.12521000  1
  O  O104  1  0.08747000  0.20446000  0.93460000  1
  O  O105  1  0.08747000  0.79554000  0.93460000  1
  O  O106  1  0.91253000  0.79554000  0.06540000  1
  O  O107  1  0.91253000  0.20446000  0.06540000  1
  O  O108  1  0.58747000  0.70446000  0.93460000  1
  O  O109  1  0.58747000  0.29554000  0.93460000  1
  O  O110  1  0.41253000  0.29554000  0.06540000  1
  O  O111  1  0.41253000  0.70446000  0.06540000  1
  O  O112  1  0.11018000  0.09339000  0.00065000  1
  O  O113  1  0.11018000  0.90661000  0.00065000  1
  O  O114  1  0.88982000  0.90661000  0.99935000  1
  O  O115  1  0.88982000  0.09339000  0.99935000  1
  O  O116  1  0.61018000  0.59339000  0.00065000  1
  O  O117  1  0.61018000  0.40661000  0.00065000  1
  O  O118  1  0.38982000  0.40661000  0.99935000  1
  O  O119  1  0.38982000  0.59339000  0.99935000  1
  O  O120  1  0.04470000  0.09123000  0.89893000  1
  O  O121  1  0.04470000  0.90877000  0.89893000  1
  O  O122  1  0.95530000  0.90877000  0.10107000  1
  O  O123  1  0.95530000  0.09123000  0.10107000  1
  O  O124  1  0.54470000  0.59123000  0.89893000  1
  O  O125  1  0.54470000  0.40877000  0.89893000  1
  O  O126  1  0.45530000  0.40877000  0.10107000  1
  O  O127  1  0.45530000  0.59123000  0.10107000  1
  O  O128  1  0.11602000  0.30682000  0.01108000  1
  O  O129  1  0.11602000  0.69318000  0.01108000  1
  O  O130  1  0.88398000  0.69318000  0.98892000  1
  O  O131  1  0.88398000  0.30682000  0.98892000  1
  O  O132  1  0.61602000  0.80682000  0.01108000  1
  O  O133  1  0.61602000  0.19318000  0.01108000  1
  O  O134  1  0.38398000  0.19318000  0.98892000  1
  O  O135  1  0.38398000  0.80682000  0.98892000  1
  O  O136  1  0.11888000  0.38250000  0.12116000  1
  O  O137  1  0.11888000  0.61750000  0.12116000  1
  O  O138  1  0.88112000  0.61750000  0.87884000  1
  O  O139  1  0.88112000  0.38250000  0.87884000  1
  O  O140  1  0.61888000  0.88250000  0.12116000  1
  O  O141  1  0.61888000  0.11750000  0.12116000  1
  O  O142  1  0.38112000  0.11750000  0.87884000  1
  O  O143  1  0.38112000  0.88250000  0.87884000  1
  O  O144  1  0.20710000  0.39152000  0.17566000  1
  O  O145  1  0.20710000  0.60848000  0.17566000  1
  O  O146  1  0.79290000  0.60848000  0.82434000  1
  O  O147  1  0.79290000  0.39152000  0.82434000  1
  O  O148  1  0.70710000  0.89152000  0.17566000  1
  O  O149  1  0.70710000  0.10848000  0.17566000  1
  O  O150  1  0.29290000  0.10848000  0.82434000  1
  O  O151  1  0.29290000  0.89152000  0.82434000  1
  O  O152  1  0.13377000  0.42286000  0.24879000  1
  O  O153  1  0.13377000  0.57714000  0.24879000  1
  O  O154  1  0.86623000  0.57714000  0.75121000  1
  O  O155  1  0.86623000  0.42286000  0.75121000  1
  O  O156  1  0.63377000  0.92286000  0.24879000  1
  O  O157  1  0.63377000  0.07714000  0.24879000  1
  O  O158  1  0.36623000  0.07714000  0.75121000  1
  O  O159  1  0.36623000  0.92286000  0.75121000  1
  O  O160  1  0.15709000  0.50000000  0.14741000  1
  O  O161  1  0.84291000  0.50000000  0.85259000  1
  O  O162  1  0.65709000  0.00000000  0.14741000  1
  O  O163  1  0.34291000  0.00000000  0.85259000  1
  O  O164  1  0.23768000  0.39590000  0.30451000  1
  O  O165  1  0.23768000  0.60410000  0.30451000  1
  O  O166  1  0.76232000  0.60410000  0.69549000  1
  O  O167  1  0.76232000  0.39590000  0.69549000  1
  O  O168  1  0.73768000  0.89590000  0.30451000  1
  O  O169  1  0.73768000  0.10410000  0.30451000  1
  O  O170  1  0.26232000  0.10410000  0.69549000  1
  O  O171  1  0.26232000  0.89590000  0.69549000  1
  O  O172  1  0.26646000  0.29939000  0.22489000  1
  O  O173  1  0.26646000  0.70061000  0.22489000  1
  O  O174  1  0.73354000  0.70061000  0.77511000  1
  O  O175  1  0.73354000  0.29939000  0.77511000  1
  O  O176  1  0.76646000  0.79939000  0.22489000  1
  O  O177  1  0.76646000  0.20061000  0.22489000  1
  O  O178  1  0.23354000  0.20061000  0.77511000  1
  O  O179  1  0.23354000  0.79939000  0.77511000  1
  O  O180  1  0.29746000  0.42200000  0.20865000  1
  O  O181  1  0.29746000  0.57800000  0.20865000  1
  O  O182  1  0.70254000  0.57800000  0.79135000  1
  O  O183  1  0.70254000  0.42200000  0.79135000  1
  O  O184  1  0.79746000  0.92200000  0.20865000  1
  O  O185  1  0.79746000  0.07800000  0.20865000  1
  O  O186  1  0.20254000  0.07800000  0.79135000  1
  O  O187  1  0.20254000  0.92200000  0.79135000  1
  O  O188  1  0.12755000  0.00000000  0.80215000  1
  O  O189  1  0.87245000  0.00000000  0.19785000  1
  O  O190  1  0.62755000  0.50000000  0.80215000  1
  O  O191  1  0.37245000  0.50000000  0.19785000  1
  O  O192  1  0.27943000  0.09178000  0.56547000  1
  O  O193  1  0.27943000  0.90822000  0.56547000  1
  O  O194  1  0.72057000  0.90822000  0.43453000  1
  O  O195  1  0.72057000  0.09178000  0.43453000  1
  O  O196  1  0.77943000  0.59178000  0.56547000  1
  O  O197  1  0.77943000  0.40822000  0.56547000  1
  O  O198  1  0.22057000  0.40822000  0.43453000  1
  O  O199  1  0.22057000  0.59178000  0.43453000  1
  O  O200  1  0.22890000  0.00000000  0.62607000  1
  O  O201  1  0.77110000  0.00000000  0.37393000  1
  O  O202  1  0.72890000  0.50000000  0.62607000  1
  O  O203  1  0.27110000  0.50000000  0.37393000  1
  O  O204  1  0.19188000  0.11879000  0.60267000  1
  O  O205  1  0.19188000  0.88121000  0.60267000  1
  O  O206  1  0.80812000  0.88121000  0.39733000  1
  O  O207  1  0.80812000  0.11879000  0.39733000  1
  O  O208  1  0.69188000  0.61879000  0.60267000  1
  O  O209  1  0.69188000  0.38121000  0.60267000  1
  O  O210  1  0.30812000  0.38121000  0.39733000  1
  O  O211  1  0.30812000  0.61879000  0.39733000  1
  O  O212  1  0.00768000  0.12387000  0.21226000  1
  O  O213  1  0.00768000  0.87613000  0.21226000  1
  O  O214  1  0.99232000  0.87613000  0.78774000  1
  O  O215  1  0.99232000  0.12387000  0.78774000  1
  O  O216  1  0.50768000  0.62387000  0.21226000  1
  O  O217  1  0.50768000  0.37613000  0.21226000  1
  O  O218  1  0.49232000  0.37613000  0.78774000  1
  O  O219  1  0.49232000  0.62387000  0.78774000  1
  O  O220  1  0.04913000  0.21412000  0.29375000  1
  O  O221  1  0.04913000  0.78588000  0.29375000  1
  O  O222  1  0.95087000  0.78588000  0.70625000  1
  O  O223  1  0.95087000  0.21412000  0.70625000  1
  O  O224  1  0.54913000  0.71412000  0.29375000  1
  O  O225  1  0.54913000  0.28588000  0.29375000  1
  O  O226  1  0.45087000  0.28588000  0.70625000  1
  O  O227  1  0.45087000  0.71412000  0.70625000  1
  O  O228  1  0.28401000  0.31286000  0.57023000  1
  O  O229  1  0.28401000  0.68714000  0.57023000  1
  O  O230  1  0.71599000  0.68714000  0.42977000  1
  O  O231  1  0.71599000  0.31286000  0.42977000  1
  O  O232  1  0.78401000  0.81286000  0.57023000  1
  O  O233  1  0.78401000  0.18714000  0.57023000  1
  O  O234  1  0.21599000  0.18714000  0.42977000  1
  O  O235  1  0.21599000  0.81286000  0.42977000  1
  O  O236  1  0.21123000  0.37900000  0.61692000  1
  O  O237  1  0.21123000  0.62100000  0.61692000  1
  O  O238  1  0.78877000  0.62100000  0.38308000  1
  O  O239  1  0.78877000  0.37900000  0.38308000  1
  O  O240  1  0.71123000  0.87900000  0.61692000  1
  O  O241  1  0.71123000  0.12100000  0.61692000  1
  O  O242  1  0.28877000  0.12100000  0.38308000  1
  O  O243  1  0.28877000  0.87900000  0.38308000  1
  O  O244  1  0.26274000  0.29750000  0.69690000  1
  O  O245  1  0.26274000  0.70250000  0.69690000  1
  O  O246  1  0.73726000  0.70250000  0.30310000  1
  O  O247  1  0.73726000  0.29750000  0.30310000  1
  O  O248  1  0.76274000  0.79750000  0.69690000  1
  O  O249  1  0.76274000  0.20250000  0.69690000  1
  O  O250  1  0.23726000  0.20250000  0.30310000  1
  O  O251  1  0.23726000  0.79750000  0.30310000  1
  O  O252  1  0.20445000  0.24890000  0.59914000  1
  O  O253  1  0.20445000  0.75110000  0.59914000  1
  O  O254  1  0.79555000  0.75110000  0.40086000  1
  O  O255  1  0.79555000  0.24890000  0.40086000  1
  O  O256  1  0.70445000  0.74890000  0.59914000  1
  O  O257  1  0.70445000  0.25110000  0.59914000  1
  O  O258  1  0.29555000  0.25110000  0.40086000  1
  O  O259  1  0.29555000  0.74890000  0.40086000  1
  O  O260  1  0.20255000  0.32275000  0.79150000  1
  O  O261  1  0.20255000  0.67725000  0.79150000  1
  O  O262  1  0.79745000  0.67725000  0.20850000  1
  O  O263  1  0.79745000  0.32275000  0.20850000  1
  O  O264  1  0.70255000  0.82275000  0.79150000  1
  O  O265  1  0.70255000  0.17725000  0.79150000  1
  O  O266  1  0.29745000  0.17725000  0.20850000  1
  O  O267  1  0.29745000  0.82275000  0.20850000  1
  O  O268  1  0.11666000  0.37604000  0.77534000  1
  O  O269  1  0.11666000  0.62396000  0.77534000  1
  O  O270  1  0.88334000  0.62396000  0.22466000  1
  O  O271  1  0.88334000  0.37604000  0.22466000  1
  O  O272  1  0.61666000  0.87604000  0.77534000  1
  O  O273  1  0.61666000  0.12396000  0.77534000  1
  O  O274  1  0.38334000  0.12396000  0.22466000  1
  O  O275  1  0.38334000  0.87604000  0.22466000  1
  O  O276  1  0.13989000  0.30070000  0.88341000  1
  O  O277  1  0.13989000  0.69930000  0.88341000  1
  O  O278  1  0.86011000  0.69930000  0.11659000  1
  O  O279  1  0.86011000  0.30070000  0.11659000  1
  O  O280  1  0.63989000  0.80070000  0.88341000  1
  O  O281  1  0.63989000  0.19930000  0.88341000  1
  O  O282  1  0.36011000  0.19930000  0.11659000  1
  O  O283  1  0.36011000  0.80070000  0.11659000  1
  O  O284  1  0.14427000  0.19102000  0.51035000  1
  O  O285  1  0.14427000  0.80898000  0.51035000  1
  O  O286  1  0.85573000  0.80898000  0.48965000  1
  O  O287  1  0.85573000  0.19102000  0.48965000  1
  O  O288  1  0.64427000  0.69102000  0.51035000  1
  O  O289  1  0.64427000  0.30898000  0.51035000  1
  O  O290  1  0.35573000  0.30898000  0.48965000  1
  O  O291  1  0.35573000  0.69102000  0.48965000  1
  O  O292  1  0.04936000  0.09420000  0.09902000  1
  O  O293  1  0.04936000  0.90580000  0.09902000  1
  O  O294  1  0.95064000  0.90580000  0.90098000  1
  O  O295  1  0.95064000  0.09420000  0.90098000  1
  O  O296  1  0.54936000  0.59420000  0.09902000  1
  O  O297  1  0.54936000  0.40580000  0.09902000  1
  O  O298  1  0.45064000  0.40580000  0.90098000  1
  O  O299  1  0.45064000  0.59420000  0.90098000  1
  O  O300  1  0.00721000  0.00000000  0.16745000  1
  O  O301  1  0.99279000  0.00000000  0.83255000  1
  O  O302  1  0.50721000  0.50000000  0.16745000  1
  O  O303  1  0.49279000  0.50000000  0.83255000  1
  O  O304  1  0.11499000  0.00000000  0.09520000  1
  O  O305  1  0.88501000  0.00000000  0.90480000  1
  O  O306  1  0.61499000  0.50000000  0.09520000  1
  O  O307  1  0.38501000  0.50000000  0.90480000  1
  O  O308  1  0.13201000  0.40227000  0.38137000  1
  O  O309  1  0.13201000  0.59773000  0.38137000  1
  O  O310  1  0.86799000  0.59773000  0.61863000  1
  O  O311  1  0.86799000  0.40227000  0.61863000  1
  O  O312  1  0.63201000  0.90227000  0.38137000  1
  O  O313  1  0.63201000  0.09773000  0.38137000  1
  O  O314  1  0.36799000  0.09773000  0.61863000  1
  O  O315  1  0.36799000  0.90227000  0.61863000  1
  O  O316  1  0.16943000  0.29889000  0.44580000  1
  O  O317  1  0.16943000  0.70111000  0.44580000  1
  O  O318  1  0.83057000  0.70111000  0.55420000  1
  O  O319  1  0.83057000  0.29889000  0.55420000  1
  O  O320  1  0.66943000  0.79889000  0.44580000  1
  O  O321  1  0.66943000  0.20111000  0.44580000  1
  O  O322  1  0.33057000  0.20111000  0.55420000  1
  O  O323  1  0.33057000  0.79889000  0.55420000  1
  O  O324  1  0.14828000  0.40590000  0.51574000  1
  O  O325  1  0.14828000  0.59410000  0.51574000  1
  O  O326  1  0.85172000  0.59410000  0.48426000  1
  O  O327  1  0.85172000  0.40590000  0.48426000  1
  O  O328  1  0.64828000  0.90590000  0.51574000  1
  O  O329  1  0.64828000  0.09410000  0.51574000  1
  O  O330  1  0.35172000  0.09410000  0.48426000  1
  O  O331  1  0.35172000  0.90590000  0.48426000  1
  O  O332  1  0.05258000  0.39213000  0.30360000  1
  O  O333  1  0.05258000  0.60787000  0.30360000  1
  O  O334  1  0.94742000  0.60787000  0.69640000  1
  O  O335  1  0.94742000  0.39213000  0.69640000  1
  O  O336  1  0.55258000  0.89213000  0.30360000  1
  O  O337  1  0.55258000  0.10787000  0.30360000  1
  O  O338  1  0.44742000  0.10787000  0.69640000  1
  O  O339  1  0.44742000  0.89213000  0.69640000  1
  O  O340  1  0.12002000  0.30167000  0.29460000  1
  O  O341  1  0.12002000  0.69833000  0.29460000  1
  O  O342  1  0.87998000  0.69833000  0.70540000  1
  O  O343  1  0.87998000  0.30167000  0.70540000  1
  O  O344  1  0.62002000  0.80167000  0.29460000  1
  O  O345  1  0.62002000  0.19833000  0.29460000  1
  O  O346  1  0.37998000  0.19833000  0.70540000  1
  O  O347  1  0.37998000  0.80167000  0.70540000  1
  O  O348  1  0.95993000  0.41706000  0.29617000  1
  O  O349  1  0.95993000  0.58294000  0.29617000  1
  O  O350  1  0.04007000  0.58294000  0.70383000  1
  O  O351  1  0.04007000  0.41706000  0.70383000  1
  O  O352  1  0.45993000  0.91706000  0.29617000  1
  O  O353  1  0.45993000  0.08294000  0.29617000  1
  O  O354  1  0.54007000  0.08294000  0.70383000  1
  O  O355  1  0.54007000  0.91706000  0.70383000  1
  O  O356  1  0.01993000  0.50000000  0.24062000  1
  O  O357  1  0.98007000  0.50000000  0.75938000  1
  O  O358  1  0.51993000  0.00000000  0.24062000  1
  O  O359  1  0.48007000  0.00000000  0.75938000  1
  O  O360  1  0.12656000  0.19952000  0.37742000  1
  O  O361  1  0.12656000  0.80048000  0.37742000  1
  O  O362  1  0.87344000  0.80048000  0.62258000  1
  O  O363  1  0.87344000  0.19952000  0.62258000  1
  O  O364  1  0.62656000  0.69952000  0.37742000  1
  O  O365  1  0.62656000  0.30048000  0.37742000  1
  O  O366  1  0.37344000  0.30048000  0.62258000  1
  O  O367  1  0.37344000  0.69952000  0.62258000  1
  O  O368  1  0.12157000  0.40262000  0.64345000  1
  O  O369  1  0.12157000  0.59738000  0.64345000  1
  O  O370  1  0.87843000  0.59738000  0.35655000  1
  O  O371  1  0.87843000  0.40262000  0.35655000  1
  O  O372  1  0.62157000  0.90262000  0.64345000  1
  O  O373  1  0.62157000  0.09738000  0.64345000  1
  O  O374  1  0.37843000  0.09738000  0.35655000  1
  O  O375  1  0.37843000  0.90262000  0.35655000  1
  O  O376  1  0.17643000  0.50000000  0.60267000  1
  O  O377  1  0.82357000  0.50000000  0.39733000  1
  O  O378  1  0.67643000  0.00000000  0.60267000  1
  O  O379  1  0.32357000  0.00000000  0.39733000  1
  O  O380  1  0.11150000  0.50000000  0.73124000  1
  O  O381  1  0.88850000  0.50000000  0.26876000  1
  O  O382  1  0.61150000  0.00000000  0.73124000  1
  O  O383  1  0.38850000  0.00000000  0.26876000  1
