# generated using pymatgen
data_Si
_symmetry_space_group_name_H-M   'P 1'
_cell_length_a   27.84490000
_cell_length_b   20.01500000
_cell_length_c   19.59650000
_cell_angle_alpha   90.00000000
_cell_angle_beta   93.20000000
_cell_angle_gamma   90.00000000
_symmetry_Int_Tables_number   1
_chemical_formula_structural   Si
_chemical_formula_sum   Si192
_cell_volume   10904.40750062
_cell_formula_units_Z   192
loop_
 _symmetry_equiv_pos_site_id
 _symmetry_equiv_pos_as_xyz
  1  'x, y, z'
loop_
 _atom_site_type_symbol
 _atom_site_label
 _atom_site_symmetry_multiplicity
 _atom_site_fract_x
 _atom_site_fract_y
 _atom_site_fract_z
 _atom_site_occupancy
  Si  Si0  1  0.10260000  0.19000000  0.71330000  1
  Si  Si1  1  0.10260000  0.81000000  0.71330000  1
  Si  Si2  1  0.89740000  0.81000000  0.28670000  1
  Si  Si3  1  0.89740000  0.19000000  0.28670000  1
  Si  Si4  1  0.60260000  0.69000000  0.71330000  1
  Si  Si5  1  0.60260000  0.31000000  0.71330000  1
  Si  Si6  1  0.39740000  0.31000000  0.28670000  1
  Si  Si7  1  0.39740000  0.69000000  0.28670000  1
  Si  Si8  1  0.99780000  0.31690000  0.13800000  1
  Si  Si9  1  0.99780000  0.68310000  0.13800000  1
  Si  Si10  1  0.00220000  0.68310000  0.86200000  1
  Si  Si11  1  0.00220000  0.31690000  0.86200000  1
  Si  Si12  1  0.49780000  0.81690000  0.13800000  1
  Si  Si13  1  0.49780000  0.18310000  0.13800000  1
  Si  Si14  1  0.50220000  0.18310000  0.86200000  1
  Si  Si15  1  0.50220000  0.81690000  0.86200000  1
  Si  Si16  1  0.15050000  0.19020000  0.16950000  1
  Si  Si17  1  0.15050000  0.80980000  0.16950000  1
  Si  Si18  1  0.84950000  0.80980000  0.83050000  1
  Si  Si19  1  0.84950000  0.19020000  0.83050000  1
  Si  Si20  1  0.65050000  0.69020000  0.16950000  1
  Si  Si21  1  0.65050000  0.30980000  0.16950000  1
  Si  Si22  1  0.34950000  0.30980000  0.83050000  1
  Si  Si23  1  0.34950000  0.69020000  0.83050000  1
  Si  Si24  1  0.09430000  0.12500000  0.92730000  1
  Si  Si25  1  0.09430000  0.87500000  0.92730000  1
  Si  Si26  1  0.90570000  0.87500000  0.07270000  1
  Si  Si27  1  0.90570000  0.12500000  0.07270000  1
  Si  Si28  1  0.59430000  0.62500000  0.92730000  1
  Si  Si29  1  0.59430000  0.37500000  0.92730000  1
  Si  Si30  1  0.40570000  0.37500000  0.07270000  1
  Si  Si31  1  0.40570000  0.62500000  0.07270000  1
  Si  Si32  1  0.10000000  0.31290000  0.08850000  1
  Si  Si33  1  0.10000000  0.68710000  0.08850000  1
  Si  Si34  1  0.90000000  0.68710000  0.91150000  1
  Si  Si35  1  0.90000000  0.31290000  0.91150000  1
  Si  Si36  1  0.60000000  0.81290000  0.08850000  1
  Si  Si37  1  0.60000000  0.18710000  0.08850000  1
  Si  Si38  1  0.40000000  0.18710000  0.91150000  1
  Si  Si39  1  0.40000000  0.81290000  0.91150000  1
  Si  Si40  1  0.15410000  0.42390000  0.17350000  1
  Si  Si41  1  0.15410000  0.57610000  0.17350000  1
  Si  Si42  1  0.84590000  0.57610000  0.82650000  1
  Si  Si43  1  0.84590000  0.42390000  0.82650000  1
  Si  Si44  1  0.65410000  0.92390000  0.17350000  1
  Si  Si45  1  0.65410000  0.07610000  0.17350000  1
  Si  Si46  1  0.34590000  0.07610000  0.82650000  1
  Si  Si47  1  0.34590000  0.92390000  0.82650000  1
  Si  Si48  1  0.25230000  0.37720000  0.22850000  1
  Si  Si49  1  0.25230000  0.62280000  0.22850000  1
  Si  Si50  1  0.74770000  0.62280000  0.77150000  1
  Si  Si51  1  0.74770000  0.37720000  0.77150000  1
  Si  Si52  1  0.75230000  0.87720000  0.22850000  1
  Si  Si53  1  0.75230000  0.12280000  0.22850000  1
  Si  Si54  1  0.24770000  0.12280000  0.77150000  1
  Si  Si55  1  0.24770000  0.87720000  0.77150000  1
  Si  Si56  1  0.14570000  0.07640000  0.80250000  1
  Si  Si57  1  0.14570000  0.92360000  0.80250000  1
  Si  Si58  1  0.85430000  0.92360000  0.19750000  1
  Si  Si59  1  0.85430000  0.07640000  0.19750000  1
  Si  Si60  1  0.64570000  0.57640000  0.80250000  1
  Si  Si61  1  0.64570000  0.42360000  0.80250000  1
  Si  Si62  1  0.35430000  0.42360000  0.19750000  1
  Si  Si63  1  0.35430000  0.57640000  0.19750000  1
  Si  Si64  1  0.24080000  0.07850000  0.62210000  1
  Si  Si65  1  0.24080000  0.92150000  0.62210000  1
  Si  Si66  1  0.75920000  0.92150000  0.37790000  1
  Si  Si67  1  0.75920000  0.07850000  0.37790000  1
  Si  Si68  1  0.74080000  0.57850000  0.62210000  1
  Si  Si69  1  0.74080000  0.42150000  0.62210000  1
  Si  Si70  1  0.25920000  0.42150000  0.37790000  1
  Si  Si71  1  0.25920000  0.57850000  0.37790000  1
  Si  Si72  1  0.00210000  0.19690000  0.24540000  1
  Si  Si73  1  0.00210000  0.80310000  0.24540000  1
  Si  Si74  1  0.99790000  0.80310000  0.75460000  1
  Si  Si75  1  0.99790000  0.19690000  0.75460000  1
  Si  Si76  1  0.50210000  0.69690000  0.24540000  1
  Si  Si77  1  0.50210000  0.30310000  0.24540000  1
  Si  Si78  1  0.49790000  0.30310000  0.75460000  1
  Si  Si79  1  0.49790000  0.69690000  0.75460000  1
  Si  Si80  1  0.24020000  0.30940000  0.62040000  1
  Si  Si81  1  0.24020000  0.69060000  0.62040000  1
  Si  Si82  1  0.75980000  0.69060000  0.37960000  1
  Si  Si83  1  0.75980000  0.30940000  0.37960000  1
  Si  Si84  1  0.74020000  0.80940000  0.62040000  1
  Si  Si85  1  0.74020000  0.19060000  0.62040000  1
  Si  Si86  1  0.25980000  0.19060000  0.37960000  1
  Si  Si87  1  0.25980000  0.80940000  0.37960000  1
  Si  Si88  1  0.14630000  0.31160000  0.80300000  1
  Si  Si89  1  0.14630000  0.68840000  0.80300000  1
  Si  Si90  1  0.85370000  0.68840000  0.19700000  1
  Si  Si91  1  0.85370000  0.31160000  0.19700000  1
  Si  Si92  1  0.64630000  0.81160000  0.80300000  1
  Si  Si93  1  0.64630000  0.18840000  0.80300000  1
  Si  Si94  1  0.35370000  0.18840000  0.19700000  1
  Si  Si95  1  0.35370000  0.81160000  0.19700000  1
  Si  Si96  1  0.09870000  0.28330000  0.93510000  1
  Si  Si97  1  0.09870000  0.71670000  0.93510000  1
  Si  Si98  1  0.90130000  0.71670000  0.06490000  1
  Si  Si99  1  0.90130000  0.28330000  0.06490000  1
  Si  Si100  1  0.59870000  0.78330000  0.93510000  1
  Si  Si101  1  0.59870000  0.21670000  0.93510000  1
  Si  Si102  1  0.40130000  0.21670000  0.06490000  1
  Si  Si103  1  0.40130000  0.78330000  0.06490000  1
  Si  Si104  1  0.16580000  0.18960000  0.58840000  1
  Si  Si105  1  0.16580000  0.81040000  0.58840000  1
  Si  Si106  1  0.83420000  0.81040000  0.41160000  1
  Si  Si107  1  0.83420000  0.18960000  0.41160000  1
  Si  Si108  1  0.66580000  0.68960000  0.58840000  1
  Si  Si109  1  0.66580000  0.31040000  0.58840000  1
  Si  Si110  1  0.33420000  0.31040000  0.41160000  1
  Si  Si111  1  0.33420000  0.68960000  0.41160000  1
  Si  Si112  1  0.25180000  0.22170000  0.22720000  1
  Si  Si113  1  0.25180000  0.77830000  0.22720000  1
  Si  Si114  1  0.74820000  0.77830000  0.77280000  1
  Si  Si115  1  0.74820000  0.22170000  0.77280000  1
  Si  Si116  1  0.75180000  0.72170000  0.22720000  1
  Si  Si117  1  0.75180000  0.27830000  0.22720000  1
  Si  Si118  1  0.24820000  0.27830000  0.77280000  1
  Si  Si119  1  0.24820000  0.72170000  0.77280000  1
  Si  Si120  1  0.00480000  0.07740000  0.14510000  1
  Si  Si121  1  0.00480000  0.92260000  0.14510000  1
  Si  Si122  1  0.99520000  0.92260000  0.85490000  1
  Si  Si123  1  0.99520000  0.07740000  0.85490000  1
  Si  Si124  1  0.50480000  0.57740000  0.14510000  1
  Si  Si125  1  0.50480000  0.42260000  0.14510000  1
  Si  Si126  1  0.49520000  0.42260000  0.85490000  1
  Si  Si127  1  0.49520000  0.57740000  0.85490000  1
  Si  Si128  1  0.10360000  0.07760000  0.08010000  1
  Si  Si129  1  0.10360000  0.92240000  0.08010000  1
  Si  Si130  1  0.89640000  0.92240000  0.91990000  1
  Si  Si131  1  0.89640000  0.07760000  0.91990000  1
  Si  Si132  1  0.60360000  0.57760000  0.08010000  1
  Si  Si133  1  0.60360000  0.42240000  0.08010000  1
  Si  Si134  1  0.39640000  0.42240000  0.91990000  1
  Si  Si135  1  0.39640000  0.57760000  0.91990000  1
  Si  Si136  1  0.16750000  0.37920000  0.44470000  1
  Si  Si137  1  0.16750000  0.62080000  0.44470000  1
  Si  Si138  1  0.83250000  0.62080000  0.55530000  1
  Si  Si139  1  0.83250000  0.37920000  0.55530000  1
  Si  Si140  1  0.66750000  0.87920000  0.44470000  1
  Si  Si141  1  0.66750000  0.12080000  0.44470000  1
  Si  Si142  1  0.33250000  0.12080000  0.55530000  1
  Si  Si143  1  0.33250000  0.87920000  0.55530000  1
  Si  Si144  1  0.10980000  0.37970000  0.30730000  1
  Si  Si145  1  0.10980000  0.62030000  0.30730000  1
  Si  Si146  1  0.89020000  0.62030000  0.69270000  1
  Si  Si147  1  0.89020000  0.37970000  0.69270000  1
  Si  Si148  1  0.60980000  0.87970000  0.30730000  1
  Si  Si149  1  0.60980000  0.12030000  0.30730000  1
  Si  Si150  1  0.39020000  0.12030000  0.69270000  1
  Si  Si151  1  0.39020000  0.87970000  0.69270000  1
  Si  Si152  1  0.00880000  0.42280000  0.25640000  1
  Si  Si153  1  0.00880000  0.57720000  0.25640000  1
  Si  Si154  1  0.99120000  0.57720000  0.74360000  1
  Si  Si155  1  0.99120000  0.42280000  0.74360000  1
  Si  Si156  1  0.50880000  0.92280000  0.25640000  1
  Si  Si157  1  0.50880000  0.07720000  0.25640000  1
  Si  Si158  1  0.49120000  0.07720000  0.74360000  1
  Si  Si159  1  0.49120000  0.92280000  0.74360000  1
  Si  Si160  1  0.16380000  0.21910000  0.44000000  1
  Si  Si161  1  0.16380000  0.78090000  0.44000000  1
  Si  Si162  1  0.83620000  0.78090000  0.56000000  1
  Si  Si163  1  0.83620000  0.21910000  0.56000000  1
  Si  Si164  1  0.66380000  0.71910000  0.44000000  1
  Si  Si165  1  0.66380000  0.28090000  0.44000000  1
  Si  Si166  1  0.33620000  0.28090000  0.56000000  1
  Si  Si167  1  0.33620000  0.71910000  0.56000000  1
  Si  Si168  1  0.10650000  0.22400000  0.30290000  1
  Si  Si169  1  0.10650000  0.77600000  0.30290000  1
  Si  Si170  1  0.89350000  0.77600000  0.69710000  1
  Si  Si171  1  0.89350000  0.22400000  0.69710000  1
  Si  Si172  1  0.60650000  0.72400000  0.30290000  1
  Si  Si173  1  0.60650000  0.27600000  0.30290000  1
  Si  Si174  1  0.39350000  0.27600000  0.69710000  1
  Si  Si175  1  0.39350000  0.72400000  0.69710000  1
  Si  Si176  1  0.16400000  0.42180000  0.59440000  1
  Si  Si177  1  0.16400000  0.57820000  0.59440000  1
  Si  Si178  1  0.83600000  0.57820000  0.40560000  1
  Si  Si179  1  0.83600000  0.42180000  0.40560000  1
  Si  Si180  1  0.66400000  0.92180000  0.59440000  1
  Si  Si181  1  0.66400000  0.07820000  0.59440000  1
  Si  Si182  1  0.33600000  0.07820000  0.40560000  1
  Si  Si183  1  0.33600000  0.92180000  0.40560000  1
  Si  Si184  1  0.09770000  0.42360000  0.71330000  1
  Si  Si185  1  0.09770000  0.57640000  0.71330000  1
  Si  Si186  1  0.90230000  0.57640000  0.28670000  1
  Si  Si187  1  0.90230000  0.42360000  0.28670000  1
  Si  Si188  1  0.59770000  0.92360000  0.71330000  1
  Si  Si189  1  0.59770000  0.07640000  0.71330000  1
  Si  Si190  1  0.40230000  0.07640000  0.28670000  1
  Si  Si191  1  0.40230000  0.92360000  0.28670000  1
