# generated using pymatgen
data_AlFeSi47H4O99
_symmetry_space_group_name_H-M   'P 1'
_cell_length_a   20.14730522
_cell_length_b   19.76815950
_cell_length_c   13.23092797
_cell_angle_alpha   90.00000000
_cell_angle_beta   90.00000000
_cell_angle_gamma   90.00000000
_symmetry_Int_Tables_number   1
_chemical_formula_structural   AlFeSi47H4O99
_chemical_formula_sum   'Al2 Fe2 Si94 H8 O198'
_cell_volume   5269.54973027
_cell_formula_units_Z   2
loop_
 _symmetry_equiv_pos_site_id
 _symmetry_equiv_pos_as_xyz
  1  'x, y, z'
loop_
 _atom_site_type_symbol
 _atom_site_label
 _atom_site_symmetry_multiplicity
 _atom_site_fract_x
 _atom_site_fract_y
 _atom_site_fract_z
 _atom_site_occupancy
  Al  Al0  1  0.27657400  0.57293600  0.78883400  1
  Al  Al1  1  0.49880600  0.72856500  0.81193200  1
  Fe  Fe2  1  0.33938100  0.63041200  0.59159200  1
  Fe  Fe3  1  0.46756200  0.66612900  0.60524000  1
  H  H4  1  0.32952200  0.57780500  0.38500800  1
  H  H5  1  0.34783200  0.65482100  0.36891100  1
  H  H6  1  0.48558100  0.72839700  0.42118800  1
  H  H7  1  0.48186400  0.64882700  0.40701300  1
  H  H8  1  0.19509100  0.64431500  0.58174700  1
  H  H9  1  0.23499100  0.64121800  0.47732100  1
  H  H10  1  0.60041500  0.66936600  0.66710200  1
  H  H11  1  0.59822700  0.67455800  0.54825300  1
  O  O12  1  0.70369300  0.47757600  0.31254600  1
  O  O13  1  0.19415400  0.32410200  0.80859500  1
  O  O14  1  0.20768800  0.82056900  0.40094100  1
  O  O15  1  0.69622800  0.97000400  0.88613900  1
  O  O16  1  0.69455400  0.32944400  0.89128900  1
  O  O17  1  0.20540900  0.48127800  0.39617000  1
  O  O18  1  0.20136000  0.97092100  0.80996200  1
  O  O19  1  0.70739800  0.81956000  0.30342500  1
  O  O20  1  0.59105800  0.46685800  0.41454600  1
  O  O21  1  0.30617600  0.33735600  0.90820000  1
  O  O22  1  0.09734700  0.83287300  0.29539600  1
  O  O23  1  0.81315200  0.97469800  0.79630200  1
  O  O24  1  0.80800200  0.32845300  0.79314800  1
  O  O25  1  0.09463800  0.46606400  0.29329100  1
  O  O26  1  0.31606800  0.98329500  0.90493900  1
  O  O27  1  0.59749300  0.84050200  0.40418300  1
  O  O28  1  0.59535500  0.53993900  0.24717000  1
  O  O29  1  0.30262100  0.26865200  0.73604300  1
  O  O30  1  0.09811100  0.75850300  0.46286600  1
  O  O31  1  0.79281600  0.04166800  0.96708200  1
  O  O32  1  0.79679800  0.25789400  0.96245600  1
  O  O33  1  0.09565100  0.53959800  0.46150000  1
  O  O34  1  0.29129000  0.05548900  0.73946400  1
  O  O35  1  0.59525000  0.76088000  0.24518700  1
  O  O36  1  0.60422100  0.40472300  0.23967600  1
  O  O37  1  0.28837300  0.40406700  0.73597800  1
  O  O38  1  0.10806000  0.89360100  0.47270600  1
  O  O39  1  0.80007400  0.90666600  0.96659100  1
  O  O40  1  0.79894600  0.39257000  0.96813600  1
  O  O41  1  0.10901900  0.40475500  0.47044500  1
  O  O42  1  0.31285600  0.92436900  0.72456000  1
  O  O43  1  0.61222100  0.89427000  0.22097700  1
  O  O44  1  0.52565700  0.43841500  0.58057100  1
  O  O45  1  0.37651800  0.35646900  0.07344600  1
  O  O46  1  0.02854700  0.86137500  0.13061700  1
  O  O47  1  0.87541100  0.93649900  0.62879700  1
  O  O48  1  0.87332100  0.36237300  0.62684900  1
  O  O49  1  0.02292000  0.44009300  0.13036700  1
  O  O50  1  0.37226500  0.94296900  0.07706400  1
  O  O51  1  0.52693600  0.86386800  0.56533100  1
  O  O52  1  0.52113500  0.35222900  0.42370500  1
  O  O53  1  0.39183000  0.44050800  0.91630200  1
  O  O54  1  0.02465900  0.94490600  0.29019700  1
  O  O55  1  0.87350500  0.85636300  0.79166400  1
  O  O56  1  0.87248700  0.44465200  0.78799500  1
  O  O57  1  0.02021700  0.35538800  0.28886700  1
  O  O58  1  0.35540000  0.85709700  0.92498300  1
  O  O59  1  0.51310600  0.94458300  0.40222400  1
  O  O60  1  0.45916200  0.46807800  0.41347100  1
  O  O61  1  0.43569700  0.31523900  0.90511900  1
  O  O62  1  0.96632500  0.82562500  0.29890600  1
  O  O63  1  0.94564200  0.96829200  0.78938800  1
  O  O64  1  0.94026000  0.33014300  0.79059500  1
  O  O65  1  0.96410500  0.47568100  0.30179700  1
  O  O66  1  0.44583900  0.95547200  0.91553100  1
  O  O67  1  0.46820600  0.81912100  0.39749200  1
  O  O68  1  0.48770400  0.51161300  0.73605300  1
  O  O69  1  0.42125700  0.27449300  0.21543900  1
  O  O70  1  0.98571700  0.77376300  0.99469600  1
  O  O71  1  0.91571100  0.02563000  0.49382900  1
  O  O72  1  0.91414600  0.27472500  0.48999200  1
  O  O73  1  0.97804500  0.52721900  0.99401300  1
  O  O74  1  0.41467000  0.02132500  0.22103700  1
  O  O75  1  0.49200000  0.76748400  0.69194400  1
  O  O76  1  0.39943700  0.43236500  0.63722600  1
  O  O77  1  0.50340500  0.36189400  0.12820600  1
  O  O78  1  0.90166200  0.86301200  0.07785600  1
  O  O79  1  0.00176600  0.93662200  0.57143700  1
  O  O80  1  0.99924700  0.36512700  0.56573300  1
  O  O81  1  0.89514400  0.44097700  0.08348800  1
  O  O82  1  0.49950100  0.93468600  0.13458100  1
  O  O83  1  0.40209900  0.85914200  0.62121600  1
  O  O84  1  0.49350400  0.37963900  0.75054300  1
  O  O85  1  0.40837000  0.40531400  0.25260900  1
  O  O86  1  0.99428800  0.90277700  0.94791700  1
  O  O87  1  0.90681600  0.89665200  0.44433000  1
  O  O88  1  0.90181700  0.40447100  0.44356000  1
  O  O89  1  0.98478500  0.39717900  0.95043300  1
  O  O90  1  0.40413800  0.88842800  0.25230500  1
  O  O91  1  0.49498500  0.89398300  0.75410700  1
  O  O92  1  0.31186600  0.53142800  0.68299900  1
  O  O93  1  0.59141500  0.27392800  0.20180700  1
  O  O94  1  0.81683400  0.77450900  0.00282500  1
  O  O95  1  0.08969600  0.02539000  0.50201600  1
  O  O96  1  0.08799400  0.27446000  0.50307900  1
  O  O97  1  0.80707100  0.52479000  0.00241200  1
  O  O98  1  0.58494600  0.02478500  0.20507600  1
  O  O99  1  0.30947900  0.79049600  0.72667000  1
  O  O100  1  0.28275600  0.43953700  0.54586500  1
  O  O101  1  0.62727100  0.35934700  0.05737000  1
  O  O102  1  0.77719400  0.85992400  0.14596300  1
  O  O103  1  0.12292900  0.94404400  0.65312900  1
  O  O104  1  0.11751000  0.35700900  0.65410100  1
  O  O105  1  0.76914300  0.44035100  0.14692500  1
  O  O106  1  0.61671200  0.95351600  0.04393300  1
  O  O107  1  0.27553200  0.85755200  0.56270000  1
  O  O108  1  0.33184900  0.48224500  0.37052300  1
  O  O109  1  0.56596800  0.32009700  0.89169500  1
  O  O110  1  0.83626400  0.82334100  0.31529400  1
  O  O111  1  0.07367300  0.97455500  0.83202800  1
  O  O112  1  0.06745400  0.32757000  0.83401200  1
  O  O113  1  0.83322300  0.47583500  0.31095600  1
  O  O114  1  0.56910100  0.97868900  0.86018400  1
  O  O115  1  0.33641600  0.82311700  0.39286000  1
  O  O116  1  0.27005700  0.36296200  0.38284600  1
  O  O117  1  0.62163600  0.44227200  0.89836400  1
  O  O118  1  0.76874400  0.93846400  0.30983400  1
  O  O119  1  0.13528400  0.85616700  0.80584900  1
  O  O120  1  0.13322800  0.44297800  0.80821600  1
  O  O121  1  0.76635500  0.35965400  0.30952900  1
  O  O122  1  0.62217800  0.85905900  0.89994500  1
  O  O123  1  0.27110900  0.93963800  0.40280500  1
  O  O124  1  0.41920500  0.54172000  0.26176500  1
  O  O125  1  0.49820600  0.24628300  0.76491600  1
  O  O126  1  0.90872800  0.76101600  0.44675900  1
  O  O127  1  0.98741700  0.03832700  0.94454500  1
  O  O128  1  0.98381600  0.26182500  0.94673700  1
  O  O129  1  0.90155200  0.54079900  0.44462200  1
  O  O130  1  0.47015300  0.02763800  0.75351900  1
  O  O131  1  0.40417600  0.75131900  0.26359900  1
  O  O132  1  0.70067500  0.24331100  0.30935500  1
  O  O133  1  0.19186800  0.56529900  0.79298900  1
  O  O134  1  0.19459900  0.04792700  0.38254700  1
  O  O135  1  0.70329400  0.75488000  0.90415800  1
  O  O136  1  0.69734200  0.55252700  0.89520800  1
  O  O137  1  0.20188900  0.24941600  0.40471500  1
  O  O138  1  0.19882900  0.73693000  0.79983600  1
  O  O139  1  0.69606900  0.04979600  0.31110100  1
  O  O140  1  0.58481000  0.23706200  0.39630300  1
  O  O141  1  0.31105200  0.54824400  0.90237200  1
  O  O142  1  0.07580600  0.06739400  0.31030500  1
  O  O143  1  0.81611300  0.73591000  0.80993600  1
  O  O144  1  0.81197700  0.56339200  0.80860900  1
  O  O145  1  0.08848900  0.24096800  0.30769500  1
  O  O146  1  0.30849900  0.73391000  0.90769600  1
  O  O147  1  0.58134400  0.05990900  0.39999500  1
  O  O148  1  0.61457300  0.14831500  0.25446900  1
  O  O149  1  0.29816800  0.65574900  0.74466400  1
  O  O150  1  0.11953100  0.15042000  0.45110600  1
  O  O151  1  0.78001500  0.65040100  0.95468700  1
  O  O152  1  0.52477600  0.25931200  0.56868600  1
  O  O153  1  0.38004900  0.52324500  0.07159200  1
  O  O154  1  0.01750800  0.03154100  0.13854500  1
  O  O155  1  0.87777600  0.77016000  0.64055100  1
  O  O156  1  0.87411000  0.53214600  0.63866300  1
  O  O157  1  0.02075300  0.26684800  0.13893700  1
  O  O158  1  0.37576600  0.76935500  0.07111000  1
  O  O159  1  0.51261000  0.02212700  0.56456300  1
  O  O160  1  0.45264700  0.23819800  0.40301200  1
  O  O161  1  0.44213900  0.56366200  0.90828500  1
  O  O162  1  0.94532700  0.05251300  0.30191400  1
  O  O163  1  0.94784000  0.74621600  0.80531000  1
  O  O164  1  0.94301000  0.55774400  0.80424100  1
  O  O165  1  0.95655700  0.23885500  0.30684600  1
  O  O166  1  0.43988900  0.75441000  0.89697900  1
  O  O167  1  0.44984900  0.06266900  0.40273500  1
  O  O168  1  0.49919400  0.13983600  0.65159000  1
  O  O169  1  0.39520800  0.64628500  0.14748000  1
  O  O170  1  0.99866500  0.14988700  0.04993600  1
  O  O171  1  0.88955400  0.65145500  0.55297800  1
  O  O172  1  0.40355400  0.23160200  0.62438500  1
  O  O173  1  0.50141300  0.56887900  0.11317200  1
  O  O174  1  0.89673400  0.06759600  0.08311900  1
  O  O175  1  0.99702400  0.72762400  0.58519100  1
  O  O176  1  0.99362400  0.57235500  0.57899800  1
  O  O177  1  0.89722300  0.23261400  0.08969900  1
  O  O178  1  0.49743600  0.72971800  0.12266300  1
  O  O179  1  0.39117000  0.06900000  0.60776300  1
  O  O180  1  0.29282100  0.15977000  0.61619600  1
  O  O181  1  0.60456300  0.65037100  0.13438600  1
  O  O182  1  0.79267900  0.15065700  0.08245100  1
  O  O183  1  0.10298400  0.64796200  0.57747700  1
  O  O184  1  0.29603400  0.28251500  0.53746200  1
  O  O185  1  0.61866700  0.52857000  0.05065400  1
  O  O186  1  0.78464200  0.02908900  0.16618700  1
  O  O187  1  0.11086100  0.76986500  0.66052500  1
  O  O188  1  0.10243700  0.52456700  0.66034900  1
  O  O189  1  0.78238100  0.27417200  0.15931900  1
  O  O190  1  0.61316700  0.77147200  0.04807500  1
  O  O191  1  0.27268700  0.03668100  0.54195400  1
  O  O192  1  0.32617100  0.24420700  0.34906600  1
  O  O193  1  0.57025700  0.56542000  0.86897300  1
  O  O194  1  0.82085000  0.05701700  0.35831500  1
  O  O195  1  0.07425800  0.74123400  0.85130200  1
  O  O196  1  0.06883100  0.55485000  0.85197500  1
  O  O197  1  0.82786000  0.24281900  0.34412500  1
  O  O198  1  0.57852600  0.73458300  0.85892600  1
  O  O199  1  0.32255200  0.05881300  0.35603500  1
  O  O200  1  0.40189300  0.14943900  0.27095200  1
  O  O201  1  0.48774100  0.64442300  0.76478700  1
  O  O202  1  0.90337500  0.14911700  0.42933500  1
  O  O203  1  0.99177600  0.65032300  0.92879500  1
  O  O204  1  0.42270300  0.58618900  0.57840700  1
  O  O205  1  0.38513100  0.71140200  0.58596100  1
  O  O206  1  0.32399900  0.62364200  0.41300000  1
  O  O207  1  0.50091700  0.68454600  0.44873700  1
  O  O208  1  0.23939500  0.64193400  0.55076100  1
  O  O209  1  0.57683800  0.65409500  0.60681300  1
  Si  Si210  1  0.62371300  0.47222900  0.30240900  1
  Si  Si211  1  0.27335800  0.33397800  0.79594700  1
  Si  Si212  1  0.12760800  0.82655000  0.40908700  1
  Si  Si213  1  0.77525900  0.97301800  0.90517400  1
  Si  Si214  1  0.77425500  0.32698500  0.90496600  1
  Si  Si215  1  0.12560000  0.47252900  0.40646400  1
  Si  Si216  1  0.28009200  0.98271300  0.79465400  1
  Si  Si217  1  0.62808200  0.82921500  0.29136400  1
  Si  Si218  1  0.52447800  0.43090600  0.45933800  1
  Si  Si219  1  0.37746700  0.36299100  0.95102300  1
  Si  Si220  1  0.02909200  0.86656900  0.25272900  1
  Si  Si221  1  0.87683000  0.93405300  0.75129400  1
  Si  Si222  1  0.87349200  0.36656400  0.74912800  1
  Si  Si223  1  0.02523000  0.43387900  0.25234600  1
  Si  Si224  1  0.37237700  0.93447400  0.95504900  1
  Si  Si225  1  0.52644300  0.86843200  0.44404800  1
  Si  Si226  1  0.47529500  0.44190700  0.67652900  1
  Si  Si227  1  0.42756200  0.34946700  0.16728400  1
  Si  Si228  1  0.97718300  0.85007300  0.03747600  1
  Si  Si229  1  0.92546800  0.94885100  0.53441600  1
  Si  Si230  1  0.92271600  0.35147800  0.53131600  1
  Si  Si231  1  0.97012400  0.45143800  0.03901700  1
  Si  Si232  1  0.42330400  0.94712400  0.17124200  1
  Si  Si233  1  0.47781500  0.84495500  0.65937800  1
  Si  Si234  1  0.32182000  0.45310200  0.65139700  1
  Si  Si235  1  0.58125000  0.34959200  0.15651400  1
  Si  Si236  1  0.82411800  0.85073600  0.04767700  1
  Si  Si237  1  0.08025400  0.95034000  0.55012700  1
  Si  Si238  1  0.07792600  0.35017500  0.54883200  1
  Si  Si239  1  0.81769500  0.44989100  0.05021800  1
  Si  Si240  1  0.57784300  0.95161700  0.15059000  1
  Si  Si241  1  0.32544400  0.85616700  0.65921900  1
  Si  Si242  1  0.27220200  0.43987000  0.42553200  1
  Si  Si243  1  0.62726600  0.36370000  0.93464400  1
  Si  Si244  1  0.77274000  0.86135700  0.26815700  1
  Si  Si245  1  0.13310800  0.93561600  0.77420200  1
  Si  Si246  1  0.12767800  0.36435800  0.77536800  1
  Si  Si247  1  0.76813600  0.43745000  0.26963600  1
  Si  Si248  1  0.62597000  0.93918200  0.92375100  1
  Si  Si249  1  0.27269900  0.86142500  0.44058300  1
  Si  Si250  1  0.40590600  0.47179200  0.32298900  1
  Si  Si251  1  0.49796300  0.31667200  0.82751000  1
  Si  Si252  1  0.90480700  0.82797900  0.37746300  1
  Si  Si253  1  0.00011900  0.97039900  0.87950300  1
  Si  Si254  1  0.99412600  0.33010200  0.88159300  1
  Si  Si255  1  0.90051400  0.47304200  0.37647100  1
  Si  Si256  1  0.49485900  0.96334000  0.81937800  1
  Si  Si257  1  0.40233600  0.82296200  0.32457700  1
  Si  Si258  1  0.62315600  0.22636800  0.28977500  1
  Si  Si259  1  0.12033700  0.07249300  0.41245000  1
  Si  Si260  1  0.77826000  0.72896400  0.91853700  1
  Si  Si261  1  0.77390800  0.57264700  0.91614700  1
  Si  Si262  1  0.12458300  0.22911800  0.41671500  1
  Si  Si263  1  0.27907000  0.72917400  0.79311800  1
  Si  Si264  1  0.61958300  0.07049100  0.29228900  1
  Si  Si265  1  0.52042200  0.27174800  0.44772400  1
  Si  Si266  1  0.37856900  0.51952900  0.94734800  1
  Si  Si267  1  0.01591800  0.02411100  0.26062300  1
  Si  Si268  1  0.87863800  0.77689300  0.76290000  1
  Si  Si269  1  0.87538400  0.52447300  0.76078000  1
  Si  Si270  1  0.02197100  0.27537200  0.26099300  1
  Si  Si271  1  0.37193100  0.77781700  0.94790100  1
  Si  Si272  1  0.51503500  0.02285200  0.44196900  1
  Si  Si273  1  0.48077900  0.21941100  0.65281200  1
  Si  Si274  1  0.42413600  0.56976300  0.14625100  1
  Si  Si275  1  0.97457800  0.07199500  0.05374800  1
  Si  Si276  1  0.91870500  0.72759600  0.55636900  1
  Si  Si277  1  0.91506000  0.57392900  0.55371300  1
  Si  Si278  1  0.97466600  0.22778300  0.05642700  1
  Si  Si279  1  0.41905300  0.72457700  0.14866100  1
  Si  Si280  1  0.46775900  0.06479600  0.64508200  1
  Si  Si281  1  0.32359900  0.23538800  0.62910000  1
  Si  Si282  1  0.58020400  0.57210700  0.13645400  1
  Si  Si283  1  0.81684000  0.07241300  0.07441100  1
  Si  Si284  1  0.07643300  0.72667700  0.57117200  1
  Si  Si285  1  0.07319600  0.57025900  0.57016900  1
  Si  Si286  1  0.81761900  0.22854800  0.07256800  1
  Si  Si287  1  0.57748000  0.72787500  0.13576000  1
  Si  Si288  1  0.31239500  0.08026200  0.62698600  1
  Si  Si289  1  0.27358200  0.28428100  0.41939200  1
  Si  Si290  1  0.62616500  0.52197700  0.92810600  1
  Si  Si291  1  0.76818300  0.01889300  0.28546900  1
  Si  Si292  1  0.12992500  0.77611800  0.78017900  1
  Si  Si293  1  0.12585200  0.52278200  0.77960900  1
  Si  Si294  1  0.76980200  0.27994500  0.28053900  1
  Si  Si295  1  0.62766700  0.77886000  0.92648000  1
  Si  Si296  1  0.26591100  0.02071600  0.42167200  1
  Si  Si297  1  0.40065100  0.22717100  0.31027700  1
  Si  Si298  1  0.49647100  0.57058700  0.81871200  1
  Si  Si299  1  0.89630200  0.07069300  0.39567800  1
  Si  Si300  1  0.00015800  0.72837200  0.89487300  1
  Si  Si301  1  0.99598700  0.57178200  0.89453600  1
  Si  Si302  1  0.90011900  0.22715500  0.39245000  1
  Si  Si303  1  0.39645400  0.07244000  0.31222100  1
