# generated using pymatgen
data_Si
_symmetry_space_group_name_H-M   'P 1'
_cell_length_a   5.01000000
_cell_length_b   31.23400000
_cell_length_c   9.01200000
_cell_angle_alpha   90.00000000
_cell_angle_beta   90.00000000
_cell_angle_gamma   90.00000000
_symmetry_Int_Tables_number   1
_chemical_formula_structural   Si
_chemical_formula_sum   Si28
_cell_volume   1410.21884808
_cell_formula_units_Z   28
loop_
 _symmetry_equiv_pos_site_id
 _symmetry_equiv_pos_as_xyz
  1  'x, y, z'
loop_
 _atom_site_type_symbol
 _atom_site_label
 _atom_site_symmetry_multiplicity
 _atom_site_fract_x
 _atom_site_fract_y
 _atom_site_fract_z
 _atom_site_occupancy
  Si  Si0  1  0.94200000  0.76860000  0.92070000  1
  Si  Si1  1  0.55800000  0.26860000  0.92070000  1
  Si  Si2  1  0.94200000  0.23140000  0.42070000  1
  Si  Si3  1  0.55800000  0.73140000  0.42070000  1
  Si  Si4  1  0.05800000  0.23140000  0.07930000  1
  Si  Si5  1  0.44200000  0.73140000  0.07930000  1
  Si  Si6  1  0.05800000  0.76860000  0.57930000  1
  Si  Si7  1  0.44200000  0.26860000  0.57930000  1
  Si  Si8  1  0.24230000  0.13860000  0.14790000  1
  Si  Si9  1  0.25770000  0.63860000  0.14790000  1
  Si  Si10  1  0.24230000  0.86140000  0.64790000  1
  Si  Si11  1  0.25770000  0.36140000  0.64790000  1
  Si  Si12  1  0.75770000  0.86140000  0.85210000  1
  Si  Si13  1  0.74230000  0.36140000  0.85210000  1
  Si  Si14  1  0.75770000  0.13860000  0.35210000  1
  Si  Si15  1  0.74230000  0.63860000  0.35210000  1
  Si  Si16  1  0.41850000  0.05470000  0.00980000  1
  Si  Si17  1  0.08150000  0.55470000  0.00980000  1
  Si  Si18  1  0.41850000  0.94530000  0.50980000  1
  Si  Si19  1  0.08150000  0.44530000  0.50980000  1
  Si  Si20  1  0.58150000  0.94530000  0.99020000  1
  Si  Si21  1  0.91850000  0.44530000  0.99020000  1
  Si  Si22  1  0.58150000  0.05470000  0.49020000  1
  Si  Si23  1  0.91850000  0.55470000  0.49020000  1
  Si  Si24  1  0.50000000  0.99620000  0.25000000  1
  Si  Si25  1  0.00000000  0.49620000  0.25000000  1
  Si  Si26  1  0.50000000  0.00380000  0.75000000  1
  Si  Si27  1  0.00000000  0.50380000  0.75000000  1
