# generated using pymatgen
data_O2
_symmetry_space_group_name_H-M   'P 1'
_cell_length_a   5.01000000
_cell_length_b   31.23400000
_cell_length_c   9.01200000
_cell_angle_alpha   90.00000000
_cell_angle_beta   90.00000000
_cell_angle_gamma   90.00000000
_symmetry_Int_Tables_number   1
_chemical_formula_structural   O2
_chemical_formula_sum   O60
_cell_volume   1410.21884808
_cell_formula_units_Z   30
loop_
 _symmetry_equiv_pos_site_id
 _symmetry_equiv_pos_as_xyz
  1  'x, y, z'
loop_
 _atom_site_type_symbol
 _atom_site_label
 _atom_site_symmetry_multiplicity
 _atom_site_fract_x
 _atom_site_fract_y
 _atom_site_fract_z
 _atom_site_occupancy
  O  O0  1  0.21120000  0.76230000  0.01580000  1
  O  O1  1  0.28880000  0.26230000  0.01580000  1
  O  O2  1  0.21120000  0.23770000  0.51580000  1
  O  O3  1  0.28880000  0.73770000  0.51580000  1
  O  O4  1  0.78880000  0.23770000  0.98420000  1
  O  O5  1  0.71120000  0.73770000  0.98420000  1
  O  O6  1  0.78880000  0.76230000  0.48420000  1
  O  O7  1  0.71120000  0.26230000  0.48420000  1
  O  O8  1  0.84500000  0.81760000  0.93260000  1
  O  O9  1  0.65500000  0.31760000  0.93260000  1
  O  O10  1  0.84500000  0.18240000  0.43260000  1
  O  O11  1  0.65500000  0.68240000  0.43260000  1
  O  O12  1  0.15500000  0.18240000  0.06740000  1
  O  O13  1  0.34500000  0.68240000  0.06740000  1
  O  O14  1  0.15500000  0.81760000  0.56740000  1
  O  O15  1  0.34500000  0.31760000  0.56740000  1
  O  O16  1  0.00000000  0.75670000  0.75000000  1
  O  O17  1  0.50000000  0.25670000  0.75000000  1
  O  O18  1  0.00000000  0.24330000  0.25000000  1
  O  O19  1  0.50000000  0.74330000  0.25000000  1
  O  O20  1  0.30780000  0.10290000  0.02430000  1
  O  O21  1  0.19220000  0.60290000  0.02430000  1
  O  O22  1  0.30780000  0.89710000  0.52430000  1
  O  O23  1  0.19220000  0.39710000  0.52430000  1
  O  O24  1  0.69220000  0.89710000  0.97570000  1
  O  O25  1  0.80780000  0.39710000  0.97570000  1
  O  O26  1  0.69220000  0.10290000  0.47570000  1
  O  O27  1  0.80780000  0.60290000  0.47570000  1
  O  O28  1  0.50000000  0.14710000  0.25000000  1
  O  O29  1  0.00000000  0.64710000  0.25000000  1
  O  O30  1  0.50000000  0.85290000  0.75000000  1
  O  O31  1  0.00000000  0.35290000  0.75000000  1
  O  O32  1  0.00000000  0.12180000  0.25000000  1
  O  O33  1  0.50000000  0.62180000  0.25000000  1
  O  O34  1  0.00000000  0.87820000  0.75000000  1
  O  O35  1  0.50000000  0.37820000  0.75000000  1
  O  O36  1  0.31980000  0.03360000  0.85600000  1
  O  O37  1  0.18020000  0.53360000  0.85600000  1
  O  O38  1  0.31980000  0.96640000  0.35600000  1
  O  O39  1  0.18020000  0.46640000  0.35600000  1
  O  O40  1  0.68020000  0.96640000  0.14400000  1
  O  O41  1  0.81980000  0.46640000  0.14400000  1
  O  O42  1  0.68020000  0.03360000  0.64400000  1
  O  O43  1  0.81980000  0.53360000  0.64400000  1
  O  O44  1  0.31440000  0.02620000  0.14720000  1
  O  O45  1  0.18560000  0.52620000  0.14720000  1
  O  O46  1  0.31440000  0.97380000  0.64720000  1
  O  O47  1  0.18560000  0.47380000  0.64720000  1
  O  O48  1  0.68560000  0.97380000  0.85280000  1
  O  O49  1  0.81440000  0.47380000  0.85280000  1
  O  O50  1  0.68560000  0.02620000  0.35280000  1
  O  O51  1  0.81440000  0.52620000  0.35280000  1
  O  O52  1  0.74010000  0.05560000  0.01190000  1
  O  O53  1  0.75990000  0.55560000  0.01190000  1
  O  O54  1  0.74010000  0.94440000  0.51190000  1
  O  O55  1  0.75990000  0.44440000  0.51190000  1
  O  O56  1  0.25990000  0.94440000  0.98810000  1
  O  O57  1  0.24010000  0.44440000  0.98810000  1
  O  O58  1  0.25990000  0.05560000  0.48810000  1
  O  O59  1  0.24010000  0.55560000  0.48810000  1
