# generated using pymatgen
data_Si
_symmetry_space_group_name_H-M   'P 1'
_cell_length_a   13.04800000
_cell_length_b   13.04800000
_cell_length_c   4.94800000
_cell_angle_alpha   90.00000000
_cell_angle_beta   90.00000000
_cell_angle_gamma   90.00000000
_symmetry_Int_Tables_number   1
_chemical_formula_structural   Si
_chemical_formula_sum   Si17
_cell_volume   842.39850419
_cell_formula_units_Z   17
loop_
 _symmetry_equiv_pos_site_id
 _symmetry_equiv_pos_as_xyz
  1  'x, y, z'
loop_
 _atom_site_type_symbol
 _atom_site_label
 _atom_site_symmetry_multiplicity
 _atom_site_fract_x
 _atom_site_fract_y
 _atom_site_fract_z
 _atom_site_occupancy
  Si  Si0  1  0.21520000  0.05030000  0.73680000  1
  Si  Si1  1  0.94970000  0.21520000  0.26320000  1
  Si  Si2  1  0.78480000  0.94970000  0.73680000  1
  Si  Si3  1  0.05030000  0.78480000  0.26320000  1
  Si  Si4  1  0.83410000  0.28700000  0.76030000  1
  Si  Si5  1  0.71300000  0.83410000  0.23970000  1
  Si  Si6  1  0.16590000  0.71300000  0.76030000  1
  Si  Si7  1  0.28700000  0.16590000  0.23970000  1
  Si  Si8  1  0.65320000  0.14660000  0.75570000  1
  Si  Si9  1  0.85340000  0.65320000  0.24430000  1
  Si  Si10  1  0.34680000  0.85340000  0.75570000  1
  Si  Si11  1  0.14660000  0.34680000  0.24430000  1
  Si  Si12  1  0.51860000  0.11470000  0.28260000  1
  Si  Si13  1  0.88530000  0.51860000  0.71740000  1
  Si  Si14  1  0.48140000  0.88530000  0.28260000  1
  Si  Si15  1  0.11470000  0.48140000  0.71740000  1
  Si  Si16  1  0.00000000  0.00000000  0.50000000  1
