# generated using pymatgen
data_O2
_symmetry_space_group_name_H-M   'P 1'
_cell_length_a   13.04800000
_cell_length_b   13.04800000
_cell_length_c   4.94800000
_cell_angle_alpha   90.00000000
_cell_angle_beta   90.00000000
_cell_angle_gamma   90.00000000
_symmetry_Int_Tables_number   1
_chemical_formula_structural   O2
_chemical_formula_sum   O34
_cell_volume   842.39850419
_cell_formula_units_Z   17
loop_
 _symmetry_equiv_pos_site_id
 _symmetry_equiv_pos_as_xyz
  1  'x, y, z'
loop_
 _atom_site_type_symbol
 _atom_site_label
 _atom_site_symmetry_multiplicity
 _atom_site_fract_x
 _atom_site_fract_y
 _atom_site_fract_z
 _atom_site_occupancy
  O  O0  1  0.09410000  0.03550000  0.68890000  1
  O  O1  1  0.96450000  0.09410000  0.31110000  1
  O  O2  1  0.90590000  0.96450000  0.68890000  1
  O  O3  1  0.03550000  0.90590000  0.31110000  1
  O  O4  1  0.25600000  0.14240000  0.54850000  1
  O  O5  1  0.85760000  0.25600000  0.45150000  1
  O  O6  1  0.74400000  0.85760000  0.54850000  1
  O  O7  1  0.14240000  0.74400000  0.45150000  1
  O  O8  1  0.23840000  0.07910000  0.04730000  1
  O  O9  1  0.92090000  0.23840000  0.95270000  1
  O  O10  1  0.76160000  0.92090000  0.04730000  1
  O  O11  1  0.07910000  0.76160000  0.95270000  1
  O  O12  1  0.27420000  0.94610000  0.65820000  1
  O  O13  1  0.05390000  0.27420000  0.34180000  1
  O  O14  1  0.72580000  0.05390000  0.65820000  1
  O  O15  1  0.94610000  0.72580000  0.34180000  1
  O  O16  1  0.72330000  0.24260000  0.84300000  1
  O  O17  1  0.75740000  0.72330000  0.15700000  1
  O  O18  1  0.27670000  0.75740000  0.84300000  1
  O  O19  1  0.24260000  0.27670000  0.15700000  1
  O  O20  1  0.83300000  0.41000000  0.78590000  1
  O  O21  1  0.59000000  0.83300000  0.21410000  1
  O  O22  1  0.16700000  0.59000000  0.78590000  1
  O  O23  1  0.41000000  0.16700000  0.21410000  1
  O  O24  1  0.57810000  0.17920000  0.51190000  1
  O  O25  1  0.82080000  0.57810000  0.48810000  1
  O  O26  1  0.42190000  0.82080000  0.51190000  1
  O  O27  1  0.17920000  0.42190000  0.48810000  1
  O  O28  1  0.58670000  0.10980000  0.01170000  1
  O  O29  1  0.89020000  0.58670000  0.98830000  1
  O  O30  1  0.41330000  0.89020000  0.01170000  1
  O  O31  1  0.10980000  0.41330000  0.98830000  1
  O  O32  1  0.50000000  0.00000000  0.39220000  1
  O  O33  1  0.00000000  0.50000000  0.60780000  1
