# generated using pymatgen
data_Si
_symmetry_space_group_name_H-M   'P 1'
_cell_length_a   16.50000000
_cell_length_b   20.18500000
_cell_length_c   5.08000000
_cell_angle_alpha   90.00000000
_cell_angle_beta   90.00000000
_cell_angle_gamma   90.00000000
_symmetry_Int_Tables_number   1
_chemical_formula_structural   Si
_chemical_formula_sum   Si32
_cell_volume   1691.90670000
_cell_formula_units_Z   32
loop_
 _symmetry_equiv_pos_site_id
 _symmetry_equiv_pos_as_xyz
  1  'x, y, z'
loop_
 _atom_site_type_symbol
 _atom_site_label
 _atom_site_symmetry_multiplicity
 _atom_site_fract_x
 _atom_site_fract_y
 _atom_site_fract_z
 _atom_site_occupancy
  Si  Si0  1  0.31130000  0.18980000  0.50000000  1
  Si  Si1  1  0.68870000  0.81020000  0.50000000  1
  Si  Si2  1  0.31130000  0.81020000  0.50000000  1
  Si  Si3  1  0.68870000  0.18980000  0.50000000  1
  Si  Si4  1  0.81130000  0.68980000  0.50000000  1
  Si  Si5  1  0.18870000  0.31020000  0.50000000  1
  Si  Si6  1  0.81130000  0.31020000  0.50000000  1
  Si  Si7  1  0.18870000  0.68980000  0.50000000  1
  Si  Si8  1  0.18590000  0.07580000  0.50000000  1
  Si  Si9  1  0.81410000  0.92420000  0.50000000  1
  Si  Si10  1  0.18590000  0.92420000  0.50000000  1
  Si  Si11  1  0.81410000  0.07580000  0.50000000  1
  Si  Si12  1  0.68590000  0.57580000  0.50000000  1
  Si  Si13  1  0.31410000  0.42420000  0.50000000  1
  Si  Si14  1  0.68590000  0.42420000  0.50000000  1
  Si  Si15  1  0.31410000  0.57580000  0.50000000  1
  Si  Si16  1  0.09200000  0.11990000  0.00000000  1
  Si  Si17  1  0.90800000  0.88010000  0.00000000  1
  Si  Si18  1  0.09200000  0.88010000  0.00000000  1
  Si  Si19  1  0.90800000  0.11990000  0.00000000  1
  Si  Si20  1  0.59200000  0.61990000  0.00000000  1
  Si  Si21  1  0.40800000  0.38010000  0.00000000  1
  Si  Si22  1  0.59200000  0.38010000  0.00000000  1
  Si  Si23  1  0.40800000  0.61990000  0.00000000  1
  Si  Si24  1  0.09200000  0.27700000  0.00000000  1
  Si  Si25  1  0.90800000  0.72300000  0.00000000  1
  Si  Si26  1  0.09200000  0.72300000  0.00000000  1
  Si  Si27  1  0.90800000  0.27700000  0.00000000  1
  Si  Si28  1  0.59200000  0.77700000  0.00000000  1
  Si  Si29  1  0.40800000  0.22300000  0.00000000  1
  Si  Si30  1  0.59200000  0.22300000  0.00000000  1
  Si  Si31  1  0.40800000  0.77700000  0.00000000  1
