# generated using pymatgen
data_Si
_symmetry_space_group_name_H-M   'P 1'
_cell_length_a   18.57400000
_cell_length_b   7.54200000
_cell_length_c   10.37700000
_cell_angle_alpha   90.00000000
_cell_angle_beta   108.91700000
_cell_angle_gamma   90.00000000
_symmetry_Int_Tables_number   1
_chemical_formula_structural   Si
_chemical_formula_sum   Si24
_cell_volume   1375.14966822
_cell_formula_units_Z   24
loop_
 _symmetry_equiv_pos_site_id
 _symmetry_equiv_pos_as_xyz
  1  'x, y, z'
loop_
 _atom_site_type_symbol
 _atom_site_label
 _atom_site_symmetry_multiplicity
 _atom_site_fract_x
 _atom_site_fract_y
 _atom_site_fract_z
 _atom_site_occupancy
  Si  Si0  1  0.21330000  0.29350000  0.84040000  1
  Si  Si1  1  0.71330000  0.79350000  0.84040000  1
  Si  Si2  1  0.78670000  0.29350000  0.15960000  1
  Si  Si3  1  0.28670000  0.79350000  0.15960000  1
  Si  Si4  1  0.78670000  0.70650000  0.15960000  1
  Si  Si5  1  0.28670000  0.20650000  0.15960000  1
  Si  Si6  1  0.21330000  0.70650000  0.84040000  1
  Si  Si7  1  0.71330000  0.20650000  0.84040000  1
  Si  Si8  1  0.18940000  0.29380000  0.35330000  1
  Si  Si9  1  0.68940000  0.79380000  0.35330000  1
  Si  Si10  1  0.81060000  0.29380000  0.64670000  1
  Si  Si11  1  0.31060000  0.79380000  0.64670000  1
  Si  Si12  1  0.81060000  0.70620000  0.64670000  1
  Si  Si13  1  0.31060000  0.20620000  0.64670000  1
  Si  Si14  1  0.18940000  0.70620000  0.35330000  1
  Si  Si15  1  0.68940000  0.20620000  0.35330000  1
  Si  Si16  1  0.09870000  0.00000000  0.69400000  1
  Si  Si17  1  0.59870000  0.50000000  0.69400000  1
  Si  Si18  1  0.90130000  0.00000000  0.30600000  1
  Si  Si19  1  0.40130000  0.50000000  0.30600000  1
  Si  Si20  1  0.08190000  0.00000000  0.38210000  1
  Si  Si21  1  0.58190000  0.50000000  0.38210000  1
  Si  Si22  1  0.91810000  0.00000000  0.61790000  1
  Si  Si23  1  0.41810000  0.50000000  0.61790000  1
