# generated using pymatgen
data_O2
_symmetry_space_group_name_H-M   'P 1'
_cell_length_a   18.57400000
_cell_length_b   7.54200000
_cell_length_c   10.37700000
_cell_angle_alpha   90.00000000
_cell_angle_beta   108.91700000
_cell_angle_gamma   90.00000000
_symmetry_Int_Tables_number   1
_chemical_formula_structural   O2
_chemical_formula_sum   O48
_cell_volume   1375.14966822
_cell_formula_units_Z   24
loop_
 _symmetry_equiv_pos_site_id
 _symmetry_equiv_pos_as_xyz
  1  'x, y, z'
loop_
 _atom_site_type_symbol
 _atom_site_label
 _atom_site_symmetry_multiplicity
 _atom_site_fract_x
 _atom_site_fract_y
 _atom_site_fract_z
 _atom_site_occupancy
  O  O0  1  0.13820000  0.17430000  0.77650000  1
  O  O1  1  0.63820000  0.67430000  0.77650000  1
  O  O2  1  0.86180000  0.17430000  0.22350000  1
  O  O3  1  0.36180000  0.67430000  0.22350000  1
  O  O4  1  0.86180000  0.82570000  0.22350000  1
  O  O5  1  0.36180000  0.32570000  0.22350000  1
  O  O6  1  0.13820000  0.82570000  0.77650000  1
  O  O7  1  0.63820000  0.32570000  0.77650000  1
  O  O8  1  0.25000000  0.25000000  0.00000000  1
  O  O9  1  0.75000000  0.75000000  0.00000000  1
  O  O10  1  0.75000000  0.25000000  0.00000000  1
  O  O11  1  0.25000000  0.75000000  0.00000000  1
  O  O12  1  0.27410000  0.24920000  0.76420000  1
  O  O13  1  0.77410000  0.74920000  0.76420000  1
  O  O14  1  0.72590000  0.24920000  0.23580000  1
  O  O15  1  0.22590000  0.74920000  0.23580000  1
  O  O16  1  0.72590000  0.75080000  0.23580000  1
  O  O17  1  0.22590000  0.25080000  0.23580000  1
  O  O18  1  0.27410000  0.75080000  0.76420000  1
  O  O19  1  0.77410000  0.25080000  0.76420000  1
  O  O20  1  0.19050000  0.50000000  0.82040000  1
  O  O21  1  0.69050000  0.00000000  0.82040000  1
  O  O22  1  0.80950000  0.50000000  0.17960000  1
  O  O23  1  0.30950000  0.00000000  0.17960000  1
  O  O24  1  0.16620000  0.50000000  0.34650000  1
  O  O25  1  0.66620000  0.00000000  0.34650000  1
  O  O26  1  0.83380000  0.50000000  0.65350000  1
  O  O27  1  0.33380000  0.00000000  0.65350000  1
  O  O28  1  0.25000000  0.25000000  0.50000000  1
  O  O29  1  0.75000000  0.75000000  0.50000000  1
  O  O30  1  0.75000000  0.25000000  0.50000000  1
  O  O31  1  0.25000000  0.75000000  0.50000000  1
  O  O32  1  0.11430000  0.17420000  0.33000000  1
  O  O33  1  0.61430000  0.67420000  0.33000000  1
  O  O34  1  0.88570000  0.17420000  0.67000000  1
  O  O35  1  0.38570000  0.67420000  0.67000000  1
  O  O36  1  0.88570000  0.82580000  0.67000000  1
  O  O37  1  0.38570000  0.32580000  0.67000000  1
  O  O38  1  0.11430000  0.82580000  0.33000000  1
  O  O39  1  0.61430000  0.32580000  0.33000000  1
  O  O40  1  0.00960000  0.00000000  0.67770000  1
  O  O41  1  0.50960000  0.50000000  0.67770000  1
  O  O42  1  0.99040000  0.00000000  0.32230000  1
  O  O43  1  0.49040000  0.50000000  0.32230000  1
  O  O44  1  0.10910000  0.00000000  0.54600000  1
  O  O45  1  0.60910000  0.50000000  0.54600000  1
  O  O46  1  0.89090000  0.00000000  0.45400000  1
  O  O47  1  0.39090000  0.50000000  0.45400000  1
