# generated using pymatgen
data_SiO4
_symmetry_space_group_name_H-M   'P 1'
_cell_length_a   18.57400000
_cell_length_b   7.54200000
_cell_length_c   10.37700000
_cell_angle_alpha   90.00000000
_cell_angle_beta   108.91700000
_cell_angle_gamma   90.00000000
_symmetry_Int_Tables_number   1
_chemical_formula_structural   SiO4
_chemical_formula_sum   'Si1 O4'
_cell_volume   1375.14966822
_cell_formula_units_Z   1
loop_
 _symmetry_equiv_pos_site_id
 _symmetry_equiv_pos_as_xyz
  1  'x, y, z'
loop_
 _atom_site_type_symbol
 _atom_site_label
 _atom_site_symmetry_multiplicity
 _atom_site_fract_x
 _atom_site_fract_y
 _atom_site_fract_z
 _atom_site_occupancy
  Si  Si0  1  0.71330000  0.79350000  0.84040000  1
  O  O1  1  0.63820000  0.67430000  0.77650000  1
  O  O2  1  0.75000000  0.75000000  1.00000000  1
  O  O3  1  0.77410000  0.74920000  0.76420000  1
  O  O4  1  0.69050000  1.00000000  0.82040000  1
