# generated using pymatgen
data_O2
_symmetry_space_group_name_H-M   'P 1'
_cell_length_a   12.77000000
_cell_length_b   12.77000000
_cell_length_c   12.97700000
_cell_angle_alpha   90.00000000
_cell_angle_beta   90.00000000
_cell_angle_gamma   90.00000000
_symmetry_Int_Tables_number   1
_chemical_formula_structural   O2
_chemical_formula_sum   O64
_cell_volume   2116.19702330
_cell_formula_units_Z   32
loop_
 _symmetry_equiv_pos_site_id
 _symmetry_equiv_pos_as_xyz
  1  'x, y, z'
loop_
 _atom_site_type_symbol
 _atom_site_label
 _atom_site_symmetry_multiplicity
 _atom_site_fract_x
 _atom_site_fract_y
 _atom_site_fract_z
 _atom_site_occupancy
  O  O0  1  0.00000000  0.61990000  0.35640000  1
  O  O1  1  0.38010000  0.00000000  0.85640000  1
  O  O2  1  0.00000000  0.38010000  0.35640000  1
  O  O3  1  0.61990000  0.00000000  0.85640000  1
  O  O4  1  0.00000000  0.38010000  0.64360000  1
  O  O5  1  0.61990000  0.00000000  0.14360000  1
  O  O6  1  0.00000000  0.61990000  0.64360000  1
  O  O7  1  0.38010000  0.00000000  0.14360000  1
  O  O8  1  0.85930000  0.65670000  0.50000000  1
  O  O9  1  0.34330000  0.85930000  0.00000000  1
  O  O10  1  0.14070000  0.34330000  0.50000000  1
  O  O11  1  0.65670000  0.14070000  0.00000000  1
  O  O12  1  0.14070000  0.65670000  0.50000000  1
  O  O13  1  0.65670000  0.85930000  0.00000000  1
  O  O14  1  0.85930000  0.34330000  0.50000000  1
  O  O15  1  0.34330000  0.14070000  0.00000000  1
  O  O16  1  0.83390000  0.50000000  0.37100000  1
  O  O17  1  0.50000000  0.83390000  0.87100000  1
  O  O18  1  0.16610000  0.50000000  0.37100000  1
  O  O19  1  0.50000000  0.16610000  0.87100000  1
  O  O20  1  0.16610000  0.50000000  0.62900000  1
  O  O21  1  0.50000000  0.16610000  0.12900000  1
  O  O22  1  0.83390000  0.50000000  0.62900000  1
  O  O23  1  0.50000000  0.83390000  0.12900000  1
  O  O24  1  0.81630000  0.69420000  0.69540000  1
  O  O25  1  0.30580000  0.81630000  0.19540000  1
  O  O26  1  0.18370000  0.30580000  0.69540000  1
  O  O27  1  0.69420000  0.18370000  0.19540000  1
  O  O28  1  0.18370000  0.69420000  0.69540000  1
  O  O29  1  0.69420000  0.81630000  0.19540000  1
  O  O30  1  0.81630000  0.30580000  0.69540000  1
  O  O31  1  0.30580000  0.18370000  0.19540000  1
  O  O32  1  0.18370000  0.30580000  0.30460000  1
  O  O33  1  0.69420000  0.18370000  0.80460000  1
  O  O34  1  0.81630000  0.69420000  0.30460000  1
  O  O35  1  0.30580000  0.81630000  0.80460000  1
  O  O36  1  0.81630000  0.30580000  0.30460000  1
  O  O37  1  0.30580000  0.18370000  0.80460000  1
  O  O38  1  0.18370000  0.69420000  0.30460000  1
  O  O39  1  0.69420000  0.81630000  0.80460000  1
  O  O40  1  0.00000000  0.88040000  0.00000000  1
  O  O41  1  0.11960000  0.00000000  0.50000000  1
  O  O42  1  0.00000000  0.11960000  0.00000000  1
  O  O43  1  0.88040000  0.00000000  0.50000000  1
  O  O44  1  0.00000000  0.00000000  0.16450000  1
  O  O45  1  0.00000000  0.00000000  0.66450000  1
  O  O46  1  0.00000000  0.00000000  0.83550000  1
  O  O47  1  0.00000000  0.00000000  0.33550000  1
  O  O48  1  0.89730000  0.17970000  0.16440000  1
  O  O49  1  0.82030000  0.89730000  0.66440000  1
  O  O50  1  0.10270000  0.82030000  0.16440000  1
  O  O51  1  0.17970000  0.10270000  0.66440000  1
  O  O52  1  0.10270000  0.17970000  0.16440000  1
  O  O53  1  0.17970000  0.89730000  0.66440000  1
  O  O54  1  0.89730000  0.82030000  0.16440000  1
  O  O55  1  0.82030000  0.10270000  0.66440000  1
  O  O56  1  0.10270000  0.82030000  0.83560000  1
  O  O57  1  0.17970000  0.10270000  0.33560000  1
  O  O58  1  0.89730000  0.17970000  0.83560000  1
  O  O59  1  0.82030000  0.89730000  0.33560000  1
  O  O60  1  0.89730000  0.82030000  0.83560000  1
  O  O61  1  0.82030000  0.10270000  0.33560000  1
  O  O62  1  0.10270000  0.17970000  0.83560000  1
  O  O63  1  0.17970000  0.89730000  0.33560000  1
