# generated using pymatgen
data_O2
_symmetry_space_group_name_H-M   'P 1'
_cell_length_a   17.21000000
_cell_length_b   17.21000000
_cell_length_c   12.79200000
_cell_angle_alpha   90.00000000
_cell_angle_beta   90.00000000
_cell_angle_gamma   120.00000000
_symmetry_Int_Tables_number   1
_chemical_formula_structural   O2
_chemical_formula_sum   O108
_cell_volume   3281.18579776
_cell_formula_units_Z   54
loop_
 _symmetry_equiv_pos_site_id
 _symmetry_equiv_pos_as_xyz
  1  'x, y, z'
loop_
 _atom_site_type_symbol
 _atom_site_label
 _atom_site_symmetry_multiplicity
 _atom_site_fract_x
 _atom_site_fract_y
 _atom_site_fract_z
 _atom_site_occupancy
  O  O0  1  0.51310000  0.25660000  0.13940000  1
  O  O1  1  0.74340000  0.25650000  0.13940000  1
  O  O2  1  0.74350000  0.48690000  0.13940000  1
  O  O3  1  0.48690000  0.74340000  0.13940000  1
  O  O4  1  0.25660000  0.74350000  0.13940000  1
  O  O5  1  0.25650000  0.51310000  0.13940000  1
  O  O6  1  0.48690000  0.74340000  0.86060000  1
  O  O7  1  0.25660000  0.74350000  0.86060000  1
  O  O8  1  0.25650000  0.51310000  0.86060000  1
  O  O9  1  0.51310000  0.25660000  0.86060000  1
  O  O10  1  0.74340000  0.25650000  0.86060000  1
  O  O11  1  0.74350000  0.48690000  0.86060000  1
  O  O12  1  0.40040000  0.31210000  0.18910000  1
  O  O13  1  0.68790000  0.08830000  0.18910000  1
  O  O14  1  0.91170000  0.59960000  0.18910000  1
  O  O15  1  0.59960000  0.68790000  0.18910000  1
  O  O16  1  0.31210000  0.91170000  0.18910000  1
  O  O17  1  0.08830000  0.40040000  0.18910000  1
  O  O18  1  0.31210000  0.40040000  0.18910000  1
  O  O19  1  0.08830000  0.68790000  0.18910000  1
  O  O20  1  0.59960000  0.91170000  0.18910000  1
  O  O21  1  0.68790000  0.59960000  0.18910000  1
  O  O22  1  0.91170000  0.31210000  0.18910000  1
  O  O23  1  0.40040000  0.08830000  0.18910000  1
  O  O24  1  0.59960000  0.68790000  0.81090000  1
  O  O25  1  0.31210000  0.91170000  0.81090000  1
  O  O26  1  0.08830000  0.40040000  0.81090000  1
  O  O27  1  0.40040000  0.31210000  0.81090000  1
  O  O28  1  0.68790000  0.08830000  0.81090000  1
  O  O29  1  0.91170000  0.59960000  0.81090000  1
  O  O30  1  0.68790000  0.59960000  0.81090000  1
  O  O31  1  0.91170000  0.31210000  0.81090000  1
  O  O32  1  0.40040000  0.08830000  0.81090000  1
  O  O33  1  0.31210000  0.40040000  0.81090000  1
  O  O34  1  0.08830000  0.68790000  0.81090000  1
  O  O35  1  0.59960000  0.91170000  0.81090000  1
  O  O36  1  0.46670000  0.33860000  0.00000000  1
  O  O37  1  0.66140000  0.12810000  0.00000000  1
  O  O38  1  0.87190000  0.53330000  0.00000000  1
  O  O39  1  0.53330000  0.66140000  0.00000000  1
  O  O40  1  0.33860000  0.87190000  0.00000000  1
  O  O41  1  0.12810000  0.46670000  0.00000000  1
  O  O42  1  0.33860000  0.46670000  0.00000000  1
  O  O43  1  0.12810000  0.66140000  0.00000000  1
  O  O44  1  0.53330000  0.87190000  0.00000000  1
  O  O45  1  0.66140000  0.53330000  0.00000000  1
  O  O46  1  0.87190000  0.33860000  0.00000000  1
  O  O47  1  0.46670000  0.12810000  0.00000000  1
  O  O48  1  0.57090000  0.42910000  0.15750000  1
  O  O49  1  0.57090000  0.14180000  0.15750000  1
  O  O50  1  0.85820000  0.42910000  0.15750000  1
  O  O51  1  0.42910000  0.57090000  0.15750000  1
  O  O52  1  0.42910000  0.85820000  0.15750000  1
  O  O53  1  0.14180000  0.57090000  0.15750000  1
  O  O54  1  0.42910000  0.57090000  0.84250000  1
  O  O55  1  0.42910000  0.85820000  0.84250000  1
  O  O56  1  0.14180000  0.57090000  0.84250000  1
  O  O57  1  0.57090000  0.42910000  0.84250000  1
  O  O58  1  0.57090000  0.14180000  0.84250000  1
  O  O59  1  0.85820000  0.42910000  0.84250000  1
  O  O60  1  0.25940000  0.00000000  0.30740000  1
  O  O61  1  0.00000000  0.25940000  0.30740000  1
  O  O62  1  0.74060000  0.74060000  0.30740000  1
  O  O63  1  0.74060000  0.00000000  0.30740000  1
  O  O64  1  0.00000000  0.74060000  0.30740000  1
  O  O65  1  0.25940000  0.25940000  0.30740000  1
  O  O66  1  0.74060000  0.00000000  0.69260000  1
  O  O67  1  0.00000000  0.74060000  0.69260000  1
  O  O68  1  0.25940000  0.25940000  0.69260000  1
  O  O69  1  0.25940000  0.00000000  0.69260000  1
  O  O70  1  0.00000000  0.25940000  0.69260000  1
  O  O71  1  0.74060000  0.74060000  0.69260000  1
  O  O72  1  0.23970000  0.00000000  0.10290000  1
  O  O73  1  0.00000000  0.23970000  0.10290000  1
  O  O74  1  0.76030000  0.76030000  0.10290000  1
  O  O75  1  0.76030000  0.00000000  0.10290000  1
  O  O76  1  0.00000000  0.76030000  0.10290000  1
  O  O77  1  0.23970000  0.23970000  0.10290000  1
  O  O78  1  0.76030000  0.00000000  0.89710000  1
  O  O79  1  0.00000000  0.76030000  0.89710000  1
  O  O80  1  0.23970000  0.23970000  0.89710000  1
  O  O81  1  0.23970000  0.00000000  0.89710000  1
  O  O82  1  0.00000000  0.23970000  0.89710000  1
  O  O83  1  0.76030000  0.76030000  0.89710000  1
  O  O84  1  0.08800000  0.91200000  0.35200000  1
  O  O85  1  0.08800000  0.17600000  0.35200000  1
  O  O86  1  0.82400000  0.91200000  0.35200000  1
  O  O87  1  0.91200000  0.08800000  0.35200000  1
  O  O88  1  0.91200000  0.82400000  0.35200000  1
  O  O89  1  0.17600000  0.08800000  0.35200000  1
  O  O90  1  0.91200000  0.08800000  0.64800000  1
  O  O91  1  0.91200000  0.82400000  0.64800000  1
  O  O92  1  0.17600000  0.08800000  0.64800000  1
  O  O93  1  0.08800000  0.91200000  0.64800000  1
  O  O94  1  0.08800000  0.17600000  0.64800000  1
  O  O95  1  0.82400000  0.91200000  0.64800000  1
  O  O96  1  0.20690000  0.00000000  0.50000000  1
  O  O97  1  0.00000000  0.20690000  0.50000000  1
  O  O98  1  0.79310000  0.79310000  0.50000000  1
  O  O99  1  0.79310000  0.00000000  0.50000000  1
  O  O100  1  0.00000000  0.79310000  0.50000000  1
  O  O101  1  0.20690000  0.20690000  0.50000000  1
  O  O102  1  0.08800000  0.91200000  0.00000000  1
  O  O103  1  0.08800000  0.17600000  0.00000000  1
  O  O104  1  0.82400000  0.91200000  0.00000000  1
  O  O105  1  0.91200000  0.08800000  0.00000000  1
  O  O106  1  0.91200000  0.82400000  0.00000000  1
  O  O107  1  0.17600000  0.08800000  0.00000000  1
