# generated using pymatgen
data_Si
_symmetry_space_group_name_H-M   'P 1'
_cell_length_a   17.21000000
_cell_length_b   17.21000000
_cell_length_c   12.79200000
_cell_angle_alpha   90.00000000
_cell_angle_beta   90.00000000
_cell_angle_gamma   120.00000000
_symmetry_Int_Tables_number   1
_chemical_formula_structural   Si
_chemical_formula_sum   Si54
_cell_volume   3281.18579776
_cell_formula_units_Z   54
loop_
 _symmetry_equiv_pos_site_id
 _symmetry_equiv_pos_as_xyz
  1  'x, y, z'
loop_
 _atom_site_type_symbol
 _atom_site_label
 _atom_site_symmetry_multiplicity
 _atom_site_fract_x
 _atom_site_fract_y
 _atom_site_fract_z
 _atom_site_occupancy
  Si  Si0  1  0.48800000  0.33390000  0.12160000  1
  Si  Si1  1  0.66610000  0.15410000  0.12160000  1
  Si  Si2  1  0.84590000  0.51200000  0.12160000  1
  Si  Si3  1  0.51200000  0.66610000  0.12160000  1
  Si  Si4  1  0.33390000  0.84590000  0.12160000  1
  Si  Si5  1  0.15410000  0.48800000  0.12160000  1
  Si  Si6  1  0.33390000  0.48800000  0.12160000  1
  Si  Si7  1  0.15410000  0.66610000  0.12160000  1
  Si  Si8  1  0.51200000  0.84590000  0.12160000  1
  Si  Si9  1  0.66610000  0.51200000  0.12160000  1
  Si  Si10  1  0.84590000  0.33390000  0.12160000  1
  Si  Si11  1  0.48800000  0.15410000  0.12160000  1
  Si  Si12  1  0.51200000  0.66610000  0.87840000  1
  Si  Si13  1  0.33390000  0.84590000  0.87840000  1
  Si  Si14  1  0.15410000  0.48800000  0.87840000  1
  Si  Si15  1  0.48800000  0.33390000  0.87840000  1
  Si  Si16  1  0.66610000  0.15410000  0.87840000  1
  Si  Si17  1  0.84590000  0.51200000  0.87840000  1
  Si  Si18  1  0.66610000  0.51200000  0.87840000  1
  Si  Si19  1  0.84590000  0.33390000  0.87840000  1
  Si  Si20  1  0.48800000  0.15410000  0.87840000  1
  Si  Si21  1  0.33390000  0.48800000  0.87840000  1
  Si  Si22  1  0.15410000  0.66610000  0.87840000  1
  Si  Si23  1  0.51200000  0.84590000  0.87840000  1
  Si  Si24  1  0.30270000  0.00000000  0.19580000  1
  Si  Si25  1  0.00000000  0.30270000  0.19580000  1
  Si  Si26  1  0.69730000  0.69730000  0.19580000  1
  Si  Si27  1  0.69730000  0.00000000  0.19580000  1
  Si  Si28  1  0.00000000  0.69730000  0.19580000  1
  Si  Si29  1  0.30270000  0.30270000  0.19580000  1
  Si  Si30  1  0.69730000  0.00000000  0.80420000  1
  Si  Si31  1  0.00000000  0.69730000  0.80420000  1
  Si  Si32  1  0.30270000  0.30270000  0.80420000  1
  Si  Si33  1  0.30270000  0.00000000  0.80420000  1
  Si  Si34  1  0.00000000  0.30270000  0.80420000  1
  Si  Si35  1  0.69730000  0.69730000  0.80420000  1
  Si  Si36  1  0.18230000  0.00000000  0.37860000  1
  Si  Si37  1  0.00000000  0.18230000  0.37860000  1
  Si  Si38  1  0.81770000  0.81770000  0.37860000  1
  Si  Si39  1  0.81770000  0.00000000  0.37860000  1
  Si  Si40  1  0.00000000  0.81770000  0.37860000  1
  Si  Si41  1  0.18230000  0.18230000  0.37860000  1
  Si  Si42  1  0.81770000  0.00000000  0.62140000  1
  Si  Si43  1  0.00000000  0.81770000  0.62140000  1
  Si  Si44  1  0.18230000  0.18230000  0.62140000  1
  Si  Si45  1  0.18230000  0.00000000  0.62140000  1
  Si  Si46  1  0.00000000  0.18230000  0.62140000  1
  Si  Si47  1  0.81770000  0.81770000  0.62140000  1
  Si  Si48  1  0.18600000  0.00000000  0.00000000  1
  Si  Si49  1  0.00000000  0.18600000  0.00000000  1
  Si  Si50  1  0.81400000  0.81400000  0.00000000  1
  Si  Si51  1  0.81400000  0.00000000  0.00000000  1
  Si  Si52  1  0.00000000  0.81400000  0.00000000  1
  Si  Si53  1  0.18600000  0.18600000  0.00000000  1
