# generated using pymatgen
data_SiO4
_symmetry_space_group_name_H-M   'P 1'
_cell_length_a   19.64099000
_cell_length_b   18.45742000
_cell_length_c   16.56554000
_cell_angle_alpha   90.00000000
_cell_angle_beta   90.00000000
_cell_angle_gamma   90.00000000
_symmetry_Int_Tables_number   1
_chemical_formula_structural   SiO4
_chemical_formula_sum   'Si1 O4'
_cell_volume   6005.37271914
_cell_formula_units_Z   1
loop_
 _symmetry_equiv_pos_site_id
 _symmetry_equiv_pos_as_xyz
  1  'x, y, z'
loop_
 _atom_site_type_symbol
 _atom_site_label
 _atom_site_symmetry_multiplicity
 _atom_site_fract_x
 _atom_site_fract_y
 _atom_site_fract_z
 _atom_site_occupancy
  Si  Si0  1  0.23417000  0.88048000  0.17785000  1
  O  O1  1  0.28657000  0.85576000  0.24730000  1
  O  O2  1  0.17426000  0.92849000  0.21695000  1
  O  O3  1  0.20050000  0.81054000  0.13576000  1
  O  O4  1  0.27266000  0.92844000  0.11074000  1
