# generated using pymatgen
data_Si
_symmetry_space_group_name_H-M   'P 1'
_cell_length_a   19.64099000
_cell_length_b   18.45742000
_cell_length_c   16.56554000
_cell_angle_alpha   90.00000000
_cell_angle_beta   90.00000000
_cell_angle_gamma   90.00000000
_symmetry_Int_Tables_number   1
_chemical_formula_structural   Si
_chemical_formula_sum   Si92
_cell_volume   6005.37271914
_cell_formula_units_Z   92
loop_
 _symmetry_equiv_pos_site_id
 _symmetry_equiv_pos_as_xyz
  1  'x, y, z'
loop_
 _atom_site_type_symbol
 _atom_site_label
 _atom_site_symmetry_multiplicity
 _atom_site_fract_x
 _atom_site_fract_y
 _atom_site_fract_z
 _atom_site_occupancy
  Si  Si0  1  0.23417000  0.11952000  0.17785000  1
  Si  Si1  1  0.23417000  0.88048000  0.82215000  1
  Si  Si2  1  0.76583000  0.11952000  0.82215000  1
  Si  Si3  1  0.76583000  0.88048000  0.17785000  1
  Si  Si4  1  0.76583000  0.88048000  0.82215000  1
  Si  Si5  1  0.76583000  0.11952000  0.17785000  1
  Si  Si6  1  0.23417000  0.88048000  0.17785000  1
  Si  Si7  1  0.23417000  0.11952000  0.82215000  1
  Si  Si8  1  0.73417000  0.61952000  0.67785000  1
  Si  Si9  1  0.73417000  0.38048000  0.32215000  1
  Si  Si10  1  0.26583000  0.61952000  0.32215000  1
  Si  Si11  1  0.26583000  0.38048000  0.67785000  1
  Si  Si12  1  0.26583000  0.38048000  0.32215000  1
  Si  Si13  1  0.26583000  0.61952000  0.67785000  1
  Si  Si14  1  0.73417000  0.38048000  0.67785000  1
  Si  Si15  1  0.73417000  0.61952000  0.32215000  1
  Si  Si16  1  0.16572000  0.38094000  0.17881000  1
  Si  Si17  1  0.16572000  0.61906000  0.82119000  1
  Si  Si18  1  0.83428000  0.38094000  0.82119000  1
  Si  Si19  1  0.83428000  0.61906000  0.17881000  1
  Si  Si20  1  0.83428000  0.61906000  0.82119000  1
  Si  Si21  1  0.83428000  0.38094000  0.17881000  1
  Si  Si22  1  0.16572000  0.61906000  0.17881000  1
  Si  Si23  1  0.16572000  0.38094000  0.82119000  1
  Si  Si24  1  0.66572000  0.88094000  0.67881000  1
  Si  Si25  1  0.66572000  0.11906000  0.32119000  1
  Si  Si26  1  0.33428000  0.88094000  0.32119000  1
  Si  Si27  1  0.33428000  0.11906000  0.67881000  1
  Si  Si28  1  0.33428000  0.11906000  0.32119000  1
  Si  Si29  1  0.33428000  0.88094000  0.67881000  1
  Si  Si30  1  0.66572000  0.11906000  0.67881000  1
  Si  Si31  1  0.66572000  0.88094000  0.32119000  1
  Si  Si32  1  0.13723000  0.23148000  0.09547000  1
  Si  Si33  1  0.13723000  0.76852000  0.90453000  1
  Si  Si34  1  0.86277000  0.23148000  0.90453000  1
  Si  Si35  1  0.86277000  0.76852000  0.09547000  1
  Si  Si36  1  0.86277000  0.76852000  0.90453000  1
  Si  Si37  1  0.86277000  0.23148000  0.09547000  1
  Si  Si38  1  0.13723000  0.76852000  0.09547000  1
  Si  Si39  1  0.13723000  0.23148000  0.90453000  1
  Si  Si40  1  0.63723000  0.73148000  0.59547000  1
  Si  Si41  1  0.63723000  0.26852000  0.40453000  1
  Si  Si42  1  0.36277000  0.73148000  0.40453000  1
  Si  Si43  1  0.36277000  0.26852000  0.59547000  1
  Si  Si44  1  0.36277000  0.26852000  0.40453000  1
  Si  Si45  1  0.36277000  0.73148000  0.59547000  1
  Si  Si46  1  0.63723000  0.26852000  0.59547000  1
  Si  Si47  1  0.63723000  0.73148000  0.40453000  1
  Si  Si48  1  0.24722000  0.00000000  0.40550000  1
  Si  Si49  1  0.24722000  0.00000000  0.59450000  1
  Si  Si50  1  0.75278000  0.00000000  0.59450000  1
  Si  Si51  1  0.75278000  0.00000000  0.40550000  1
  Si  Si52  1  0.74722000  0.50000000  0.90550000  1
  Si  Si53  1  0.74722000  0.50000000  0.09450000  1
  Si  Si54  1  0.25278000  0.50000000  0.09450000  1
  Si  Si55  1  0.25278000  0.50000000  0.90550000  1
  Si  Si56  1  0.14846000  0.00000000  0.26321000  1
  Si  Si57  1  0.14846000  0.00000000  0.73679000  1
  Si  Si58  1  0.85154000  0.00000000  0.73679000  1
  Si  Si59  1  0.85154000  0.00000000  0.26321000  1
  Si  Si60  1  0.64846000  0.50000000  0.76321000  1
  Si  Si61  1  0.64846000  0.50000000  0.23679000  1
  Si  Si62  1  0.35154000  0.50000000  0.23679000  1
  Si  Si63  1  0.35154000  0.50000000  0.76321000  1
  Si  Si64  1  0.08114000  0.50000000  0.26253000  1
  Si  Si65  1  0.08114000  0.50000000  0.73747000  1
  Si  Si66  1  0.91886000  0.50000000  0.73747000  1
  Si  Si67  1  0.91886000  0.50000000  0.26253000  1
  Si  Si68  1  0.58114000  0.00000000  0.76253000  1
  Si  Si69  1  0.58114000  0.00000000  0.23747000  1
  Si  Si70  1  0.41886000  0.00000000  0.23747000  1
  Si  Si71  1  0.41886000  0.00000000  0.76253000  1
  Si  Si72  1  0.18303000  0.50000000  0.40708000  1
  Si  Si73  1  0.18303000  0.50000000  0.59292000  1
  Si  Si74  1  0.81697000  0.50000000  0.59292000  1
  Si  Si75  1  0.81697000  0.50000000  0.40708000  1
  Si  Si76  1  0.68303000  0.00000000  0.90708000  1
  Si  Si77  1  0.68303000  0.00000000  0.09292000  1
  Si  Si78  1  0.31697000  0.00000000  0.09292000  1
  Si  Si79  1  0.31697000  0.00000000  0.90708000  1
  Si  Si80  1  0.00000000  0.14158000  0.09328000  1
  Si  Si81  1  0.00000000  0.85842000  0.90672000  1
  Si  Si82  1  0.00000000  0.14158000  0.90672000  1
  Si  Si83  1  0.00000000  0.85842000  0.09328000  1
  Si  Si84  1  0.50000000  0.64158000  0.59328000  1
  Si  Si85  1  0.50000000  0.35842000  0.40672000  1
  Si  Si86  1  0.50000000  0.64158000  0.40672000  1
  Si  Si87  1  0.50000000  0.35842000  0.59328000  1
  Si  Si88  1  0.00000000  0.00000000  0.20662000  1
  Si  Si89  1  0.00000000  0.00000000  0.79338000  1
  Si  Si90  1  0.50000000  0.50000000  0.70662000  1
  Si  Si91  1  0.50000000  0.50000000  0.29338000  1
