# generated using pymatgen
data_O2
_symmetry_space_group_name_H-M   'P 1'
_cell_length_a   19.64099000
_cell_length_b   18.45742000
_cell_length_c   16.56554000
_cell_angle_alpha   90.00000000
_cell_angle_beta   90.00000000
_cell_angle_gamma   90.00000000
_symmetry_Int_Tables_number   1
_chemical_formula_structural   O2
_chemical_formula_sum   O184
_cell_volume   6005.37271914
_cell_formula_units_Z   92
loop_
 _symmetry_equiv_pos_site_id
 _symmetry_equiv_pos_as_xyz
  1  'x, y, z'
loop_
 _atom_site_type_symbol
 _atom_site_label
 _atom_site_symmetry_multiplicity
 _atom_site_fract_x
 _atom_site_fract_y
 _atom_site_fract_z
 _atom_site_occupancy
  O  O0  1  0.28657000  0.14424000  0.24730000  1
  O  O1  1  0.28657000  0.85576000  0.75270000  1
  O  O2  1  0.71343000  0.14424000  0.75270000  1
  O  O3  1  0.71343000  0.85576000  0.24730000  1
  O  O4  1  0.71343000  0.85576000  0.75270000  1
  O  O5  1  0.71343000  0.14424000  0.24730000  1
  O  O6  1  0.28657000  0.85576000  0.24730000  1
  O  O7  1  0.28657000  0.14424000  0.75270000  1
  O  O8  1  0.78657000  0.64424000  0.74730000  1
  O  O9  1  0.78657000  0.35576000  0.25270000  1
  O  O10  1  0.21343000  0.64424000  0.25270000  1
  O  O11  1  0.21343000  0.35576000  0.74730000  1
  O  O12  1  0.21343000  0.35576000  0.25270000  1
  O  O13  1  0.21343000  0.64424000  0.74730000  1
  O  O14  1  0.78657000  0.35576000  0.74730000  1
  O  O15  1  0.78657000  0.64424000  0.25270000  1
  O  O16  1  0.17426000  0.07151000  0.21695000  1
  O  O17  1  0.17426000  0.92849000  0.78305000  1
  O  O18  1  0.82574000  0.07151000  0.78305000  1
  O  O19  1  0.82574000  0.92849000  0.21695000  1
  O  O20  1  0.82574000  0.92849000  0.78305000  1
  O  O21  1  0.82574000  0.07151000  0.21695000  1
  O  O22  1  0.17426000  0.92849000  0.21695000  1
  O  O23  1  0.17426000  0.07151000  0.78305000  1
  O  O24  1  0.67426000  0.57151000  0.71695000  1
  O  O25  1  0.67426000  0.42849000  0.28305000  1
  O  O26  1  0.32574000  0.57151000  0.28305000  1
  O  O27  1  0.32574000  0.42849000  0.71695000  1
  O  O28  1  0.32574000  0.42849000  0.28305000  1
  O  O29  1  0.32574000  0.57151000  0.71695000  1
  O  O30  1  0.67426000  0.42849000  0.71695000  1
  O  O31  1  0.67426000  0.57151000  0.28305000  1
  O  O32  1  0.20050000  0.18946000  0.13576000  1
  O  O33  1  0.20050000  0.81054000  0.86424000  1
  O  O34  1  0.79950000  0.18946000  0.86424000  1
  O  O35  1  0.79950000  0.81054000  0.13576000  1
  O  O36  1  0.79950000  0.81054000  0.86424000  1
  O  O37  1  0.79950000  0.18946000  0.13576000  1
  O  O38  1  0.20050000  0.81054000  0.13576000  1
  O  O39  1  0.20050000  0.18946000  0.86424000  1
  O  O40  1  0.70050000  0.68946000  0.63576000  1
  O  O41  1  0.70050000  0.31054000  0.36424000  1
  O  O42  1  0.29950000  0.68946000  0.36424000  1
  O  O43  1  0.29950000  0.31054000  0.63576000  1
  O  O44  1  0.29950000  0.31054000  0.36424000  1
  O  O45  1  0.29950000  0.68946000  0.63576000  1
  O  O46  1  0.70050000  0.31054000  0.63576000  1
  O  O47  1  0.70050000  0.68946000  0.36424000  1
  O  O48  1  0.27266000  0.07156000  0.11074000  1
  O  O49  1  0.27266000  0.92844000  0.88926000  1
  O  O50  1  0.72734000  0.07156000  0.88926000  1
  O  O51  1  0.72734000  0.92844000  0.11074000  1
  O  O52  1  0.72734000  0.92844000  0.88926000  1
  O  O53  1  0.72734000  0.07156000  0.11074000  1
  O  O54  1  0.27266000  0.92844000  0.11074000  1
  O  O55  1  0.27266000  0.07156000  0.88926000  1
  O  O56  1  0.77266000  0.57156000  0.61074000  1
  O  O57  1  0.77266000  0.42844000  0.38926000  1
  O  O58  1  0.22734000  0.57156000  0.38926000  1
  O  O59  1  0.22734000  0.42844000  0.61074000  1
  O  O60  1  0.22734000  0.42844000  0.38926000  1
  O  O61  1  0.22734000  0.57156000  0.61074000  1
  O  O62  1  0.77266000  0.42844000  0.61074000  1
  O  O63  1  0.77266000  0.57156000  0.38926000  1
  O  O64  1  0.10365000  0.42879000  0.21331000  1
  O  O65  1  0.10365000  0.57121000  0.78669000  1
  O  O66  1  0.89635000  0.42879000  0.78669000  1
  O  O67  1  0.89635000  0.57121000  0.21331000  1
  O  O68  1  0.89635000  0.57121000  0.78669000  1
  O  O69  1  0.89635000  0.42879000  0.21331000  1
  O  O70  1  0.10365000  0.57121000  0.21331000  1
  O  O71  1  0.10365000  0.42879000  0.78669000  1
  O  O72  1  0.60365000  0.92879000  0.71331000  1
  O  O73  1  0.60365000  0.07121000  0.28669000  1
  O  O74  1  0.39635000  0.92879000  0.28669000  1
  O  O75  1  0.39635000  0.07121000  0.71331000  1
  O  O76  1  0.39635000  0.07121000  0.28669000  1
  O  O77  1  0.39635000  0.92879000  0.71331000  1
  O  O78  1  0.60365000  0.07121000  0.71331000  1
  O  O79  1  0.60365000  0.92879000  0.28669000  1
  O  O80  1  0.20924000  0.42865000  0.11593000  1
  O  O81  1  0.20924000  0.57135000  0.88407000  1
  O  O82  1  0.79076000  0.42865000  0.88407000  1
  O  O83  1  0.79076000  0.57135000  0.11593000  1
  O  O84  1  0.79076000  0.57135000  0.88407000  1
  O  O85  1  0.79076000  0.42865000  0.11593000  1
  O  O86  1  0.20924000  0.57135000  0.11593000  1
  O  O87  1  0.20924000  0.42865000  0.88407000  1
  O  O88  1  0.70924000  0.92865000  0.61593000  1
  O  O89  1  0.70924000  0.07135000  0.38407000  1
  O  O90  1  0.29076000  0.92865000  0.38407000  1
  O  O91  1  0.29076000  0.07135000  0.61593000  1
  O  O92  1  0.29076000  0.07135000  0.38407000  1
  O  O93  1  0.29076000  0.92865000  0.61593000  1
  O  O94  1  0.70924000  0.07135000  0.61593000  1
  O  O95  1  0.70924000  0.92865000  0.38407000  1
  O  O96  1  0.13370000  0.31149000  0.13395000  1
  O  O97  1  0.13370000  0.68851000  0.86605000  1
  O  O98  1  0.86630000  0.31149000  0.86605000  1
  O  O99  1  0.86630000  0.68851000  0.13395000  1
  O  O100  1  0.86630000  0.68851000  0.86605000  1
  O  O101  1  0.86630000  0.31149000  0.13395000  1
  O  O102  1  0.13370000  0.68851000  0.13395000  1
  O  O103  1  0.13370000  0.31149000  0.86605000  1
  O  O104  1  0.63370000  0.81149000  0.63395000  1
  O  O105  1  0.63370000  0.18851000  0.36605000  1
  O  O106  1  0.36630000  0.81149000  0.36605000  1
  O  O107  1  0.36630000  0.18851000  0.63395000  1
  O  O108  1  0.36630000  0.18851000  0.36605000  1
  O  O109  1  0.36630000  0.81149000  0.63395000  1
  O  O110  1  0.63370000  0.18851000  0.63395000  1
  O  O111  1  0.63370000  0.81149000  0.36605000  1
  O  O112  1  0.00000000  0.11709000  0.00000000  1
  O  O113  1  0.00000000  0.88291000  0.00000000  1
  O  O114  1  0.50000000  0.61709000  0.50000000  1
  O  O115  1  0.50000000  0.38291000  0.50000000  1
  O  O116  1  0.06703000  0.18900000  0.11175000  1
  O  O117  1  0.06703000  0.81100000  0.88825000  1
  O  O118  1  0.93297000  0.18900000  0.88825000  1
  O  O119  1  0.93297000  0.81100000  0.11175000  1
  O  O120  1  0.93297000  0.81100000  0.88825000  1
  O  O121  1  0.93297000  0.18900000  0.11175000  1
  O  O122  1  0.06703000  0.81100000  0.11175000  1
  O  O123  1  0.06703000  0.18900000  0.88825000  1
  O  O124  1  0.56703000  0.68900000  0.61175000  1
  O  O125  1  0.56703000  0.31100000  0.38825000  1
  O  O126  1  0.43297000  0.68900000  0.38825000  1
  O  O127  1  0.43297000  0.31100000  0.61175000  1
  O  O128  1  0.43297000  0.31100000  0.38825000  1
  O  O129  1  0.43297000  0.68900000  0.61175000  1
  O  O130  1  0.56703000  0.31100000  0.61175000  1
  O  O131  1  0.56703000  0.68900000  0.38825000  1
  O  O132  1  0.00000000  0.07115000  0.15052000  1
  O  O133  1  0.00000000  0.92885000  0.84948000  1
  O  O134  1  0.00000000  0.07115000  0.84948000  1
  O  O135  1  0.00000000  0.92885000  0.15052000  1
  O  O136  1  0.50000000  0.57115000  0.65052000  1
  O  O137  1  0.50000000  0.42885000  0.34948000  1
  O  O138  1  0.50000000  0.57115000  0.34948000  1
  O  O139  1  0.50000000  0.42885000  0.65052000  1
  O  O140  1  0.15050000  0.23847000  0.00000000  1
  O  O141  1  0.15050000  0.76153000  0.00000000  1
  O  O142  1  0.84950000  0.23847000  0.00000000  1
  O  O143  1  0.84950000  0.76153000  0.00000000  1
  O  O144  1  0.65050000  0.73847000  0.50000000  1
  O  O145  1  0.65050000  0.26153000  0.50000000  1
  O  O146  1  0.34950000  0.73847000  0.50000000  1
  O  O147  1  0.34950000  0.26153000  0.50000000  1
  O  O148  1  0.11673000  0.50000000  0.35003000  1
  O  O149  1  0.11673000  0.50000000  0.64997000  1
  O  O150  1  0.88327000  0.50000000  0.64997000  1
  O  O151  1  0.88327000  0.50000000  0.35003000  1
  O  O152  1  0.61673000  0.00000000  0.85003000  1
  O  O153  1  0.61673000  0.00000000  0.14997000  1
  O  O154  1  0.38327000  0.00000000  0.14997000  1
  O  O155  1  0.38327000  0.00000000  0.85003000  1
  O  O156  1  0.00000000  0.50000000  0.27491000  1
  O  O157  1  0.00000000  0.50000000  0.72509000  1
  O  O158  1  0.50000000  0.00000000  0.77491000  1
  O  O159  1  0.50000000  0.00000000  0.22509000  1
  O  O160  1  0.17767000  0.00000000  0.35399000  1
  O  O161  1  0.17767000  0.00000000  0.64601000  1
  O  O162  1  0.82233000  0.00000000  0.64601000  1
  O  O163  1  0.82233000  0.00000000  0.35399000  1
  O  O164  1  0.67767000  0.50000000  0.85399000  1
  O  O165  1  0.67767000  0.50000000  0.14601000  1
  O  O166  1  0.32233000  0.50000000  0.14601000  1
  O  O167  1  0.32233000  0.50000000  0.85399000  1
  O  O168  1  0.22833000  0.00000000  0.50000000  1
  O  O169  1  0.77167000  0.00000000  0.50000000  1
  O  O170  1  0.72833000  0.50000000  0.00000000  1
  O  O171  1  0.27167000  0.50000000  0.00000000  1
  O  O172  1  0.06652000  0.00000000  0.26351000  1
  O  O173  1  0.06652000  0.00000000  0.73649000  1
  O  O174  1  0.93348000  0.00000000  0.73649000  1
  O  O175  1  0.93348000  0.00000000  0.26351000  1
  O  O176  1  0.56652000  0.50000000  0.76351000  1
  O  O177  1  0.56652000  0.50000000  0.23649000  1
  O  O178  1  0.43348000  0.50000000  0.23649000  1
  O  O179  1  0.43348000  0.50000000  0.76351000  1
  O  O180  1  0.15906000  0.50000000  0.50000000  1
  O  O181  1  0.84094000  0.50000000  0.50000000  1
  O  O182  1  0.65906000  0.00000000  0.00000000  1
  O  O183  1  0.34094000  0.00000000  0.00000000  1
