# generated using pymatgen
data_SiO4
_symmetry_space_group_name_H-M   'P 1'
_cell_length_a   13.17800000
_cell_length_b   13.17800000
_cell_length_c   15.00500000
_cell_angle_alpha   90.00000000
_cell_angle_beta   90.00000000
_cell_angle_gamma   120.00000000
_symmetry_Int_Tables_number   1
_chemical_formula_structural   SiO4
_chemical_formula_sum   'Si1 O4'
_cell_volume   2256.65743785
_cell_formula_units_Z   1
loop_
 _symmetry_equiv_pos_site_id
 _symmetry_equiv_pos_as_xyz
  1  'x, y, z'
loop_
 _atom_site_type_symbol
 _atom_site_label
 _atom_site_symmetry_multiplicity
 _atom_site_fract_x
 _atom_site_fract_y
 _atom_site_fract_z
 _atom_site_occupancy
  Si  Si0  1  0.56550000  0.89900000  0.85260000  1
  O  O1  1  0.67830000  0.97620000  0.91430000  1
  O  O2  1  0.52460000  0.76230000  0.86380000  1
  O  O3  1  0.59860000  0.93670000  0.75000000  1
  O  O4  1  0.46030000  0.92060000  0.88210000  1
