# generated using pymatgen
data_O2
_symmetry_space_group_name_H-M   'P 1'
_cell_length_a   14.12900000
_cell_length_b   5.25300000
_cell_length_c   8.92800000
_cell_angle_alpha   90.00000000
_cell_angle_beta   105.36800000
_cell_angle_gamma   90.00000000
_symmetry_Int_Tables_number   1
_chemical_formula_structural   O2
_chemical_formula_sum   O24
_cell_volume   638.93953047
_cell_formula_units_Z   12
loop_
 _symmetry_equiv_pos_site_id
 _symmetry_equiv_pos_as_xyz
  1  'x, y, z'
loop_
 _atom_site_type_symbol
 _atom_site_label
 _atom_site_symmetry_multiplicity
 _atom_site_fract_x
 _atom_site_fract_y
 _atom_site_fract_z
 _atom_site_occupancy
  O  O0  1  0.67520000  0.00000000  0.19610000  1
  O  O1  1  0.17520000  0.50000000  0.19610000  1
  O  O2  1  0.32480000  0.00000000  0.80390000  1
  O  O3  1  0.82480000  0.50000000  0.80390000  1
  O  O4  1  0.53110000  0.25000000  0.26360000  1
  O  O5  1  0.03110000  0.75000000  0.26360000  1
  O  O6  1  0.46890000  0.25000000  0.73640000  1
  O  O7  1  0.96890000  0.75000000  0.73640000  1
  O  O8  1  0.46890000  0.75000000  0.73640000  1
  O  O9  1  0.96890000  0.25000000  0.73640000  1
  O  O10  1  0.53110000  0.75000000  0.26360000  1
  O  O11  1  0.03110000  0.25000000  0.26360000  1
  O  O12  1  0.50000000  0.00000000  0.00000000  1
  O  O13  1  0.00000000  0.50000000  0.00000000  1
  O  O14  1  0.00000000  0.00000000  0.50000000  1
  O  O15  1  0.50000000  0.50000000  0.50000000  1
  O  O16  1  0.13450000  0.00000000  0.76680000  1
  O  O17  1  0.63450000  0.50000000  0.76680000  1
  O  O18  1  0.86550000  0.00000000  0.23320000  1
  O  O19  1  0.36550000  0.50000000  0.23320000  1
  O  O20  1  0.25000000  0.25000000  0.00000000  1
  O  O21  1  0.75000000  0.75000000  0.00000000  1
  O  O22  1  0.75000000  0.25000000  0.00000000  1
  O  O23  1  0.25000000  0.75000000  0.00000000  1
