# generated using pymatgen
data_Si
_symmetry_space_group_name_H-M   'P 1'
_cell_length_a   7.16300000
_cell_length_b   7.16300000
_cell_length_c   20.87600000
_cell_angle_alpha   90.00000000
_cell_angle_beta   90.00000000
_cell_angle_gamma   90.00000000
_symmetry_Int_Tables_number   1
_chemical_formula_structural   Si
_chemical_formula_sum   Si18
_cell_volume   1071.11768644
_cell_formula_units_Z   18
loop_
 _symmetry_equiv_pos_site_id
 _symmetry_equiv_pos_as_xyz
  1  'x, y, z'
loop_
 _atom_site_type_symbol
 _atom_site_label
 _atom_site_symmetry_multiplicity
 _atom_site_fract_x
 _atom_site_fract_y
 _atom_site_fract_z
 _atom_site_occupancy
  Si  Si0  1  0.28140000  0.50000000  0.07650000  1
  Si  Si1  1  0.50000000  0.28140000  0.57650000  1
  Si  Si2  1  0.71860000  0.50000000  0.07650000  1
  Si  Si3  1  0.50000000  0.71860000  0.57650000  1
  Si  Si4  1  0.71860000  0.50000000  0.92350000  1
  Si  Si5  1  0.50000000  0.71860000  0.42350000  1
  Si  Si6  1  0.28140000  0.50000000  0.92350000  1
  Si  Si7  1  0.50000000  0.28140000  0.42350000  1
  Si  Si8  1  0.00000000  0.79440000  0.12850000  1
  Si  Si9  1  0.20560000  0.00000000  0.62850000  1
  Si  Si10  1  0.00000000  0.20560000  0.12850000  1
  Si  Si11  1  0.79440000  0.00000000  0.62850000  1
  Si  Si12  1  0.00000000  0.20560000  0.87150000  1
  Si  Si13  1  0.79440000  0.00000000  0.37150000  1
  Si  Si14  1  0.00000000  0.79440000  0.87150000  1
  Si  Si15  1  0.20560000  0.00000000  0.37150000  1
  Si  Si16  1  0.00000000  0.00000000  0.75000000  1
  Si  Si17  1  0.00000000  0.00000000  0.25000000  1
