# generated using pymatgen
data_O2
_symmetry_space_group_name_H-M   'P 1'
_cell_length_a   7.16300000
_cell_length_b   7.16300000
_cell_length_c   20.87600000
_cell_angle_alpha   90.00000000
_cell_angle_beta   90.00000000
_cell_angle_gamma   90.00000000
_symmetry_Int_Tables_number   1
_chemical_formula_structural   O2
_chemical_formula_sum   O36
_cell_volume   1071.11768644
_cell_formula_units_Z   18
loop_
 _symmetry_equiv_pos_site_id
 _symmetry_equiv_pos_as_xyz
  1  'x, y, z'
loop_
 _atom_site_type_symbol
 _atom_site_label
 _atom_site_symmetry_multiplicity
 _atom_site_fract_x
 _atom_site_fract_y
 _atom_site_fract_z
 _atom_site_occupancy
  O  O0  1  0.25580000  0.50000000  0.00000000  1
  O  O1  1  0.50000000  0.25580000  0.50000000  1
  O  O2  1  0.74420000  0.50000000  0.00000000  1
  O  O3  1  0.50000000  0.74420000  0.50000000  1
  O  O4  1  0.18400000  0.68330000  0.10610000  1
  O  O5  1  0.31670000  0.18400000  0.60610000  1
  O  O6  1  0.81600000  0.31670000  0.10610000  1
  O  O7  1  0.68330000  0.81600000  0.60610000  1
  O  O8  1  0.81600000  0.68330000  0.10610000  1
  O  O9  1  0.68330000  0.18400000  0.60610000  1
  O  O10  1  0.18400000  0.31670000  0.10610000  1
  O  O11  1  0.31670000  0.81600000  0.60610000  1
  O  O12  1  0.81600000  0.31670000  0.89390000  1
  O  O13  1  0.68330000  0.81600000  0.39390000  1
  O  O14  1  0.18400000  0.68330000  0.89390000  1
  O  O15  1  0.31670000  0.18400000  0.39390000  1
  O  O16  1  0.18400000  0.31670000  0.89390000  1
  O  O17  1  0.31670000  0.81600000  0.39390000  1
  O  O18  1  0.81600000  0.68330000  0.89390000  1
  O  O19  1  0.68330000  0.18400000  0.39390000  1
  O  O20  1  0.50000000  0.50000000  0.09430000  1
  O  O21  1  0.50000000  0.50000000  0.59430000  1
  O  O22  1  0.50000000  0.50000000  0.90570000  1
  O  O23  1  0.50000000  0.50000000  0.40570000  1
  O  O24  1  0.00000000  0.00000000  0.09700000  1
  O  O25  1  0.00000000  0.00000000  0.59700000  1
  O  O26  1  0.00000000  0.00000000  0.90300000  1
  O  O27  1  0.00000000  0.00000000  0.40300000  1
  O  O28  1  0.00000000  0.81660000  0.20530000  1
  O  O29  1  0.18340000  0.00000000  0.70530000  1
  O  O30  1  0.00000000  0.18340000  0.20530000  1
  O  O31  1  0.81660000  0.00000000  0.70530000  1
  O  O32  1  0.00000000  0.18340000  0.79470000  1
  O  O33  1  0.81660000  0.00000000  0.29470000  1
  O  O34  1  0.00000000  0.81660000  0.79470000  1
  O  O35  1  0.18340000  0.00000000  0.29470000  1
