# generated using pymatgen
data_O2
_symmetry_space_group_name_H-M   'P 1'
_cell_length_a   18.89000000
_cell_length_b   23.36500000
_cell_length_c   8.46900000
_cell_angle_alpha   90.00000000
_cell_angle_beta   90.00000000
_cell_angle_gamma   90.00000000
_symmetry_Int_Tables_number   1
_chemical_formula_structural   O2
_chemical_formula_sum   O128
_cell_volume   3737.91891465
_cell_formula_units_Z   64
loop_
 _symmetry_equiv_pos_site_id
 _symmetry_equiv_pos_as_xyz
  1  'x, y, z'
loop_
 _atom_site_type_symbol
 _atom_site_label
 _atom_site_symmetry_multiplicity
 _atom_site_fract_x
 _atom_site_fract_y
 _atom_site_fract_z
 _atom_site_occupancy
  O  O0  1  0.50000000  0.31330000  0.45060000  1
  O  O1  1  0.00000000  0.81330000  0.45060000  1
  O  O2  1  0.50000000  0.68670000  0.95060000  1
  O  O3  1  0.00000000  0.18670000  0.95060000  1
  O  O4  1  0.50000000  0.68670000  0.54940000  1
  O  O5  1  0.00000000  0.18670000  0.54940000  1
  O  O6  1  0.50000000  0.31330000  0.04940000  1
  O  O7  1  0.00000000  0.81330000  0.04940000  1
  O  O8  1  0.56960000  0.22170000  0.54100000  1
  O  O9  1  0.06960000  0.72170000  0.54100000  1
  O  O10  1  0.43040000  0.22170000  0.54100000  1
  O  O11  1  0.93040000  0.72170000  0.54100000  1
  O  O12  1  0.56960000  0.77830000  0.04100000  1
  O  O13  1  0.06960000  0.27830000  0.04100000  1
  O  O14  1  0.43040000  0.77830000  0.04100000  1
  O  O15  1  0.93040000  0.27830000  0.04100000  1
  O  O16  1  0.43040000  0.77830000  0.45900000  1
  O  O17  1  0.93040000  0.27830000  0.45900000  1
  O  O18  1  0.56960000  0.77830000  0.45900000  1
  O  O19  1  0.06960000  0.27830000  0.45900000  1
  O  O20  1  0.43040000  0.22170000  0.95900000  1
  O  O21  1  0.93040000  0.72170000  0.95900000  1
  O  O22  1  0.56960000  0.22170000  0.95900000  1
  O  O23  1  0.06960000  0.72170000  0.95900000  1
  O  O24  1  0.50000000  0.28290000  0.75000000  1
  O  O25  1  0.00000000  0.78290000  0.75000000  1
  O  O26  1  0.50000000  0.71710000  0.25000000  1
  O  O27  1  0.00000000  0.21710000  0.25000000  1
  O  O28  1  0.06950000  0.09260000  0.48150000  1
  O  O29  1  0.56950000  0.59260000  0.48150000  1
  O  O30  1  0.93050000  0.09260000  0.48150000  1
  O  O31  1  0.43050000  0.59260000  0.48150000  1
  O  O32  1  0.06950000  0.90740000  0.98150000  1
  O  O33  1  0.56950000  0.40740000  0.98150000  1
  O  O34  1  0.93050000  0.90740000  0.98150000  1
  O  O35  1  0.43050000  0.40740000  0.98150000  1
  O  O36  1  0.93050000  0.90740000  0.51850000  1
  O  O37  1  0.43050000  0.40740000  0.51850000  1
  O  O38  1  0.06950000  0.90740000  0.51850000  1
  O  O39  1  0.56950000  0.40740000  0.51850000  1
  O  O40  1  0.93050000  0.09260000  0.01850000  1
  O  O41  1  0.43050000  0.59260000  0.01850000  1
  O  O42  1  0.06950000  0.09260000  0.01850000  1
  O  O43  1  0.56950000  0.59260000  0.01850000  1
  O  O44  1  0.20700000  0.10130000  0.52190000  1
  O  O45  1  0.70700000  0.60130000  0.52190000  1
  O  O46  1  0.79300000  0.10130000  0.52190000  1
  O  O47  1  0.29300000  0.60130000  0.52190000  1
  O  O48  1  0.20700000  0.89870000  0.02190000  1
  O  O49  1  0.70700000  0.39870000  0.02190000  1
  O  O50  1  0.79300000  0.89870000  0.02190000  1
  O  O51  1  0.29300000  0.39870000  0.02190000  1
  O  O52  1  0.79300000  0.89870000  0.47810000  1
  O  O53  1  0.29300000  0.39870000  0.47810000  1
  O  O54  1  0.20700000  0.89870000  0.47810000  1
  O  O55  1  0.70700000  0.39870000  0.47810000  1
  O  O56  1  0.79300000  0.10130000  0.97810000  1
  O  O57  1  0.29300000  0.60130000  0.97810000  1
  O  O58  1  0.20700000  0.10130000  0.97810000  1
  O  O59  1  0.70700000  0.60130000  0.97810000  1
  O  O60  1  0.14790000  0.00000000  0.50000000  1
  O  O61  1  0.64790000  0.50000000  0.50000000  1
  O  O62  1  0.85210000  0.00000000  0.50000000  1
  O  O63  1  0.35210000  0.50000000  0.50000000  1
  O  O64  1  0.14790000  0.00000000  0.00000000  1
  O  O65  1  0.64790000  0.50000000  0.00000000  1
  O  O66  1  0.85210000  0.00000000  0.00000000  1
  O  O67  1  0.35210000  0.50000000  0.00000000  1
  O  O68  1  0.15650000  0.06630000  0.25000000  1
  O  O69  1  0.65650000  0.56630000  0.25000000  1
  O  O70  1  0.84350000  0.06630000  0.25000000  1
  O  O71  1  0.34350000  0.56630000  0.25000000  1
  O  O72  1  0.15650000  0.93370000  0.75000000  1
  O  O73  1  0.65650000  0.43370000  0.75000000  1
  O  O74  1  0.84350000  0.93370000  0.75000000  1
  O  O75  1  0.34350000  0.43370000  0.75000000  1
  O  O76  1  0.88400000  0.72970000  0.25000000  1
  O  O77  1  0.38400000  0.22970000  0.25000000  1
  O  O78  1  0.11600000  0.72970000  0.25000000  1
  O  O79  1  0.61600000  0.22970000  0.25000000  1
  O  O80  1  0.88400000  0.27030000  0.75000000  1
  O  O81  1  0.38400000  0.77030000  0.75000000  1
  O  O82  1  0.11600000  0.27030000  0.75000000  1
  O  O83  1  0.61600000  0.77030000  0.75000000  1
  O  O84  1  0.82270000  0.78870000  0.47610000  1
  O  O85  1  0.32270000  0.28870000  0.47610000  1
  O  O86  1  0.17730000  0.78870000  0.47610000  1
  O  O87  1  0.67730000  0.28870000  0.47610000  1
  O  O88  1  0.82270000  0.21130000  0.97610000  1
  O  O89  1  0.32270000  0.71130000  0.97610000  1
  O  O90  1  0.17730000  0.21130000  0.97610000  1
  O  O91  1  0.67730000  0.71130000  0.97610000  1
  O  O92  1  0.17730000  0.21130000  0.52390000  1
  O  O93  1  0.67730000  0.71130000  0.52390000  1
  O  O94  1  0.82270000  0.21130000  0.52390000  1
  O  O95  1  0.32270000  0.71130000  0.52390000  1
  O  O96  1  0.17730000  0.78870000  0.02390000  1
  O  O97  1  0.67730000  0.28870000  0.02390000  1
  O  O98  1  0.82270000  0.78870000  0.02390000  1
  O  O99  1  0.32270000  0.28870000  0.02390000  1
  O  O100  1  0.80700000  0.67690000  0.46390000  1
  O  O101  1  0.30700000  0.17690000  0.46390000  1
  O  O102  1  0.19300000  0.67690000  0.46390000  1
  O  O103  1  0.69300000  0.17690000  0.46390000  1
  O  O104  1  0.80700000  0.32310000  0.96390000  1
  O  O105  1  0.30700000  0.82310000  0.96390000  1
  O  O106  1  0.19300000  0.32310000  0.96390000  1
  O  O107  1  0.69300000  0.82310000  0.96390000  1
  O  O108  1  0.19300000  0.32310000  0.53610000  1
  O  O109  1  0.69300000  0.82310000  0.53610000  1
  O  O110  1  0.80700000  0.32310000  0.53610000  1
  O  O111  1  0.30700000  0.82310000  0.53610000  1
  O  O112  1  0.19300000  0.67690000  0.03610000  1
  O  O113  1  0.69300000  0.17690000  0.03610000  1
  O  O114  1  0.80700000  0.67690000  0.03610000  1
  O  O115  1  0.30700000  0.17690000  0.03610000  1
  O  O116  1  0.75550000  0.66690000  0.75000000  1
  O  O117  1  0.25550000  0.16690000  0.75000000  1
  O  O118  1  0.24450000  0.66690000  0.75000000  1
  O  O119  1  0.74450000  0.16690000  0.75000000  1
  O  O120  1  0.75550000  0.33310000  0.25000000  1
  O  O121  1  0.25550000  0.83310000  0.25000000  1
  O  O122  1  0.24450000  0.33310000  0.25000000  1
  O  O123  1  0.74450000  0.83310000  0.25000000  1
  O  O124  1  0.00000000  0.89940000  0.25000000  1
  O  O125  1  0.50000000  0.39940000  0.25000000  1
  O  O126  1  0.00000000  0.10060000  0.75000000  1
  O  O127  1  0.50000000  0.60060000  0.75000000  1
