# generated using pymatgen
data_Si
_symmetry_space_group_name_H-M   'P 1'
_cell_length_a   18.89000000
_cell_length_b   23.36500000
_cell_length_c   8.46900000
_cell_angle_alpha   90.00000000
_cell_angle_beta   90.00000000
_cell_angle_gamma   90.00000000
_symmetry_Int_Tables_number   1
_chemical_formula_structural   Si
_chemical_formula_sum   Si64
_cell_volume   3737.91891465
_cell_formula_units_Z   64
loop_
 _symmetry_equiv_pos_site_id
 _symmetry_equiv_pos_as_xyz
  1  'x, y, z'
loop_
 _atom_site_type_symbol
 _atom_site_label
 _atom_site_symmetry_multiplicity
 _atom_site_fract_x
 _atom_site_fract_y
 _atom_site_fract_z
 _atom_site_occupancy
  Si  Si0  1  0.86080000  0.72910000  0.43280000  1
  Si  Si1  1  0.36080000  0.22910000  0.43280000  1
  Si  Si2  1  0.13920000  0.72910000  0.43280000  1
  Si  Si3  1  0.63920000  0.22910000  0.43280000  1
  Si  Si4  1  0.86080000  0.27090000  0.93280000  1
  Si  Si5  1  0.36080000  0.77090000  0.93280000  1
  Si  Si6  1  0.13920000  0.27090000  0.93280000  1
  Si  Si7  1  0.63920000  0.77090000  0.93280000  1
  Si  Si8  1  0.13920000  0.27090000  0.56720000  1
  Si  Si9  1  0.63920000  0.77090000  0.56720000  1
  Si  Si10  1  0.86080000  0.27090000  0.56720000  1
  Si  Si11  1  0.36080000  0.77090000  0.56720000  1
  Si  Si12  1  0.13920000  0.72910000  0.06720000  1
  Si  Si13  1  0.63920000  0.22910000  0.06720000  1
  Si  Si14  1  0.86080000  0.72910000  0.06720000  1
  Si  Si15  1  0.36080000  0.22910000  0.06720000  1
  Si  Si16  1  0.73650000  0.66400000  0.56500000  1
  Si  Si17  1  0.23650000  0.16400000  0.56500000  1
  Si  Si18  1  0.26350000  0.66400000  0.56500000  1
  Si  Si19  1  0.76350000  0.16400000  0.56500000  1
  Si  Si20  1  0.73650000  0.33600000  0.06500000  1
  Si  Si21  1  0.23650000  0.83600000  0.06500000  1
  Si  Si22  1  0.26350000  0.33600000  0.06500000  1
  Si  Si23  1  0.76350000  0.83600000  0.06500000  1
  Si  Si24  1  0.26350000  0.33600000  0.43500000  1
  Si  Si25  1  0.76350000  0.83600000  0.43500000  1
  Si  Si26  1  0.73650000  0.33600000  0.43500000  1
  Si  Si27  1  0.23650000  0.83600000  0.43500000  1
  Si  Si28  1  0.26350000  0.66400000  0.93500000  1
  Si  Si29  1  0.76350000  0.16400000  0.93500000  1
  Si  Si30  1  0.73650000  0.66400000  0.93500000  1
  Si  Si31  1  0.23650000  0.16400000  0.93500000  1
  Si  Si32  1  0.14510000  0.06500000  0.43810000  1
  Si  Si33  1  0.64510000  0.56500000  0.43810000  1
  Si  Si34  1  0.85490000  0.06500000  0.43810000  1
  Si  Si35  1  0.35490000  0.56500000  0.43810000  1
  Si  Si36  1  0.14510000  0.93500000  0.93810000  1
  Si  Si37  1  0.64510000  0.43500000  0.93810000  1
  Si  Si38  1  0.85490000  0.93500000  0.93810000  1
  Si  Si39  1  0.35490000  0.43500000  0.93810000  1
  Si  Si40  1  0.85490000  0.93500000  0.56190000  1
  Si  Si41  1  0.35490000  0.43500000  0.56190000  1
  Si  Si42  1  0.14510000  0.93500000  0.56190000  1
  Si  Si43  1  0.64510000  0.43500000  0.56190000  1
  Si  Si44  1  0.85490000  0.06500000  0.06190000  1
  Si  Si45  1  0.35490000  0.56500000  0.06190000  1
  Si  Si46  1  0.14510000  0.06500000  0.06190000  1
  Si  Si47  1  0.64510000  0.56500000  0.06190000  1
  Si  Si48  1  0.50000000  0.25990000  0.57070000  1
  Si  Si49  1  0.00000000  0.75990000  0.57070000  1
  Si  Si50  1  0.50000000  0.74010000  0.07070000  1
  Si  Si51  1  0.00000000  0.24010000  0.07070000  1
  Si  Si52  1  0.50000000  0.74010000  0.42930000  1
  Si  Si53  1  0.00000000  0.24010000  0.42930000  1
  Si  Si54  1  0.50000000  0.25990000  0.92930000  1
  Si  Si55  1  0.00000000  0.75990000  0.92930000  1
  Si  Si56  1  0.00000000  0.88200000  0.43380000  1
  Si  Si57  1  0.50000000  0.38200000  0.43380000  1
  Si  Si58  1  0.00000000  0.11800000  0.93380000  1
  Si  Si59  1  0.50000000  0.61800000  0.93380000  1
  Si  Si60  1  0.00000000  0.11800000  0.56620000  1
  Si  Si61  1  0.50000000  0.61800000  0.56620000  1
  Si  Si62  1  0.00000000  0.88200000  0.06620000  1
  Si  Si63  1  0.50000000  0.38200000  0.06620000  1
