# generated using pymatgen
data_SiO4
_symmetry_space_group_name_H-M   'P 1'
_cell_length_a   18.89000000
_cell_length_b   23.36500000
_cell_length_c   8.46900000
_cell_angle_alpha   90.00000000
_cell_angle_beta   90.00000000
_cell_angle_gamma   90.00000000
_symmetry_Int_Tables_number   1
_chemical_formula_structural   SiO4
_chemical_formula_sum   'Si1 O4'
_cell_volume   3737.91891465
_cell_formula_units_Z   1
loop_
 _symmetry_equiv_pos_site_id
 _symmetry_equiv_pos_as_xyz
  1  'x, y, z'
loop_
 _atom_site_type_symbol
 _atom_site_label
 _atom_site_symmetry_multiplicity
 _atom_site_fract_x
 _atom_site_fract_y
 _atom_site_fract_z
 _atom_site_occupancy
  Si  Si0  1  0.86080000  0.27090000  0.93280000  1
  O  O1  1  0.93040000  0.27830000  1.04100000  1
  O  O2  1  0.88400000  0.27030000  0.75000000  1
  O  O3  1  0.82270000  0.21130000  0.97610000  1
  O  O4  1  0.80700000  0.32310000  0.96390000  1
