# generated using pymatgen
data_SiO4
_symmetry_space_group_name_H-M   'P 1'
_cell_length_a   18.18069000
_cell_length_b   31.84059000
_cell_length_c   12.64068000
_cell_angle_alpha   90.00000000
_cell_angle_beta   90.00000000
_cell_angle_gamma   90.00000000
_symmetry_Int_Tables_number   1
_chemical_formula_structural   SiO4
_chemical_formula_sum   'Si1 O4'
_cell_volume   7317.48608911
_cell_formula_units_Z   1
loop_
 _symmetry_equiv_pos_site_id
 _symmetry_equiv_pos_as_xyz
  1  'x, y, z'
loop_
 _atom_site_type_symbol
 _atom_site_label
 _atom_site_symmetry_multiplicity
 _atom_site_fract_x
 _atom_site_fract_y
 _atom_site_fract_z
 _atom_site_occupancy
  Si  Si0  1  0.70750000  0.45134000  0.87709000  1
  O  O1  1  0.69555000  0.50000000  0.84714000  1
  O  O2  1  0.72954000  0.44741000  1.00000000  1
  O  O3  1  0.63252000  0.42584000  0.85535000  1
  O  O4  1  0.77278000  0.43221000  0.80566000  1
