# generated using pymatgen
data_SiO4
_symmetry_space_group_name_H-M   'P 1'
_cell_length_a   18.18069000
_cell_length_b   31.84059000
_cell_length_c   12.64068000
_cell_angle_alpha   90.00000000
_cell_angle_beta   90.00000000
_cell_angle_gamma   90.00000000
_symmetry_Int_Tables_number   1
_chemical_formula_structural   SiO4
_chemical_formula_sum   'Si1 O4'
_cell_volume   7317.48608911
_cell_formula_units_Z   1
loop_
 _symmetry_equiv_pos_site_id
 _symmetry_equiv_pos_as_xyz
  1  'x, y, z'
loop_
 _atom_site_type_symbol
 _atom_site_label
 _atom_site_symmetry_multiplicity
 _atom_site_fract_x
 _atom_site_fract_y
 _atom_site_fract_z
 _atom_site_occupancy
  Si  Si0  1  0.35789000  0.67636000  0.70123000  1
  O  O1  1  0.38199000  0.65437000  0.81051000  1
  O  O2  1  0.26960000  0.67693000  0.69182000  1
  O  O3  1  0.38838000  0.72382000  0.69822000  1
  O  O4  1  0.39219000  0.65033000  0.60401000  1
