# generated using pymatgen
data_Si
_symmetry_space_group_name_H-M   'P 1'
_cell_length_a   18.18069000
_cell_length_b   31.84059000
_cell_length_c   12.64068000
_cell_angle_alpha   90.00000000
_cell_angle_beta   90.00000000
_cell_angle_gamma   90.00000000
_symmetry_Int_Tables_number   1
_chemical_formula_structural   Si
_chemical_formula_sum   Si120
_cell_volume   7317.48608911
_cell_formula_units_Z   120
loop_
 _symmetry_equiv_pos_site_id
 _symmetry_equiv_pos_as_xyz
  1  'x, y, z'
loop_
 _atom_site_type_symbol
 _atom_site_label
 _atom_site_symmetry_multiplicity
 _atom_site_fract_x
 _atom_site_fract_y
 _atom_site_fract_z
 _atom_site_occupancy
  Si  Si0  1  0.41520000  0.23888000  0.37865000  1
  Si  Si1  1  0.58480000  0.76112000  0.37865000  1
  Si  Si2  1  0.41520000  0.76112000  0.62135000  1
  Si  Si3  1  0.58480000  0.23888000  0.62135000  1
  Si  Si4  1  0.58480000  0.76112000  0.62135000  1
  Si  Si5  1  0.41520000  0.23888000  0.62135000  1
  Si  Si6  1  0.58480000  0.23888000  0.37865000  1
  Si  Si7  1  0.41520000  0.76112000  0.37865000  1
  Si  Si8  1  0.91520000  0.73888000  0.37865000  1
  Si  Si9  1  0.08480000  0.26112000  0.37865000  1
  Si  Si10  1  0.91520000  0.26112000  0.62135000  1
  Si  Si11  1  0.08480000  0.73888000  0.62135000  1
  Si  Si12  1  0.08480000  0.26112000  0.62135000  1
  Si  Si13  1  0.91520000  0.73888000  0.62135000  1
  Si  Si14  1  0.08480000  0.73888000  0.37865000  1
  Si  Si15  1  0.91520000  0.26112000  0.37865000  1
  Si  Si16  1  0.14211000  0.17636000  0.29877000  1
  Si  Si17  1  0.85789000  0.82364000  0.29877000  1
  Si  Si18  1  0.14211000  0.82364000  0.70123000  1
  Si  Si19  1  0.85789000  0.17636000  0.70123000  1
  Si  Si20  1  0.85789000  0.82364000  0.70123000  1
  Si  Si21  1  0.14211000  0.17636000  0.70123000  1
  Si  Si22  1  0.85789000  0.17636000  0.29877000  1
  Si  Si23  1  0.14211000  0.82364000  0.29877000  1
  Si  Si24  1  0.64211000  0.67636000  0.29877000  1
  Si  Si25  1  0.35789000  0.32364000  0.29877000  1
  Si  Si26  1  0.64211000  0.32364000  0.70123000  1
  Si  Si27  1  0.35789000  0.67636000  0.70123000  1
  Si  Si28  1  0.35789000  0.32364000  0.70123000  1
  Si  Si29  1  0.64211000  0.67636000  0.70123000  1
  Si  Si30  1  0.35789000  0.67636000  0.29877000  1
  Si  Si31  1  0.64211000  0.32364000  0.29877000  1
  Si  Si32  1  0.20750000  0.04866000  0.12291000  1
  Si  Si33  1  0.79250000  0.95134000  0.12291000  1
  Si  Si34  1  0.20750000  0.95134000  0.87709000  1
  Si  Si35  1  0.79250000  0.04866000  0.87709000  1
  Si  Si36  1  0.79250000  0.95134000  0.87709000  1
  Si  Si37  1  0.20750000  0.04866000  0.87709000  1
  Si  Si38  1  0.79250000  0.04866000  0.12291000  1
  Si  Si39  1  0.20750000  0.95134000  0.12291000  1
  Si  Si40  1  0.70750000  0.54866000  0.12291000  1
  Si  Si41  1  0.29250000  0.45134000  0.12291000  1
  Si  Si42  1  0.70750000  0.45134000  0.87709000  1
  Si  Si43  1  0.29250000  0.54866000  0.87709000  1
  Si  Si44  1  0.29250000  0.45134000  0.87709000  1
  Si  Si45  1  0.70750000  0.54866000  0.87709000  1
  Si  Si46  1  0.29250000  0.54866000  0.12291000  1
  Si  Si47  1  0.70750000  0.45134000  0.12291000  1
  Si  Si48  1  0.91595000  0.11564000  0.12379000  1
  Si  Si49  1  0.08405000  0.88436000  0.12379000  1
  Si  Si50  1  0.91595000  0.88436000  0.87621000  1
  Si  Si51  1  0.08405000  0.11564000  0.87621000  1
  Si  Si52  1  0.08405000  0.88436000  0.87621000  1
  Si  Si53  1  0.91595000  0.11564000  0.87621000  1
  Si  Si54  1  0.08405000  0.11564000  0.12379000  1
  Si  Si55  1  0.91595000  0.88436000  0.12379000  1
  Si  Si56  1  0.41595000  0.61564000  0.12379000  1
  Si  Si57  1  0.58405000  0.38436000  0.12379000  1
  Si  Si58  1  0.41595000  0.38436000  0.87621000  1
  Si  Si59  1  0.58405000  0.61564000  0.87621000  1
  Si  Si60  1  0.58405000  0.38436000  0.87621000  1
  Si  Si61  1  0.41595000  0.61564000  0.87621000  1
  Si  Si62  1  0.58405000  0.61564000  0.12379000  1
  Si  Si63  1  0.41595000  0.38436000  0.12379000  1
  Si  Si64  1  0.30732000  0.07069000  0.31139000  1
  Si  Si65  1  0.69268000  0.92931000  0.31139000  1
  Si  Si66  1  0.30732000  0.92931000  0.68861000  1
  Si  Si67  1  0.69268000  0.07069000  0.68861000  1
  Si  Si68  1  0.69268000  0.92931000  0.68861000  1
  Si  Si69  1  0.30732000  0.07069000  0.68861000  1
  Si  Si70  1  0.69268000  0.07069000  0.31139000  1
  Si  Si71  1  0.30732000  0.92931000  0.31139000  1
  Si  Si72  1  0.80732000  0.57069000  0.31139000  1
  Si  Si73  1  0.19268000  0.42931000  0.31139000  1
  Si  Si74  1  0.80732000  0.42931000  0.68861000  1
  Si  Si75  1  0.19268000  0.57069000  0.68861000  1
  Si  Si76  1  0.19268000  0.42931000  0.68861000  1
  Si  Si77  1  0.80732000  0.57069000  0.68861000  1
  Si  Si78  1  0.19268000  0.57069000  0.31139000  1
  Si  Si79  1  0.80732000  0.42931000  0.31139000  1
  Si  Si80  1  0.30144000  0.16381000  0.37669000  1
  Si  Si81  1  0.69856000  0.83619000  0.37669000  1
  Si  Si82  1  0.30144000  0.83619000  0.62331000  1
  Si  Si83  1  0.69856000  0.16381000  0.62331000  1
  Si  Si84  1  0.69856000  0.83619000  0.62331000  1
  Si  Si85  1  0.30144000  0.16381000  0.62331000  1
  Si  Si86  1  0.69856000  0.16381000  0.37669000  1
  Si  Si87  1  0.30144000  0.83619000  0.37669000  1
  Si  Si88  1  0.80144000  0.66381000  0.37669000  1
  Si  Si89  1  0.19856000  0.33619000  0.37669000  1
  Si  Si90  1  0.80144000  0.33619000  0.62331000  1
  Si  Si91  1  0.19856000  0.66381000  0.62331000  1
  Si  Si92  1  0.19856000  0.33619000  0.62331000  1
  Si  Si93  1  0.80144000  0.66381000  0.62331000  1
  Si  Si94  1  0.19856000  0.66381000  0.37669000  1
  Si  Si95  1  0.80144000  0.33619000  0.37669000  1
  Si  Si96  1  0.19812000  0.04763000  0.50000000  1
  Si  Si97  1  0.80188000  0.95237000  0.50000000  1
  Si  Si98  1  0.19812000  0.95237000  0.50000000  1
  Si  Si99  1  0.80188000  0.04763000  0.50000000  1
  Si  Si100  1  0.69812000  0.54763000  0.50000000  1
  Si  Si101  1  0.30188000  0.45237000  0.50000000  1
  Si  Si102  1  0.69812000  0.45237000  0.50000000  1
  Si  Si103  1  0.30188000  0.54763000  0.50000000  1
  Si  Si104  1  0.08682000  0.12386000  0.50000000  1
  Si  Si105  1  0.91318000  0.87614000  0.50000000  1
  Si  Si106  1  0.08682000  0.87614000  0.50000000  1
  Si  Si107  1  0.91318000  0.12386000  0.50000000  1
  Si  Si108  1  0.58682000  0.62386000  0.50000000  1
  Si  Si109  1  0.41318000  0.37614000  0.50000000  1
  Si  Si110  1  0.58682000  0.37614000  0.50000000  1
  Si  Si111  1  0.41318000  0.62386000  0.50000000  1
  Si  Si112  1  0.41209000  0.00000000  0.37677000  1
  Si  Si113  1  0.58791000  0.00000000  0.37677000  1
  Si  Si114  1  0.41209000  0.00000000  0.62323000  1
  Si  Si115  1  0.58791000  0.00000000  0.62323000  1
  Si  Si116  1  0.91209000  0.50000000  0.37677000  1
  Si  Si117  1  0.08791000  0.50000000  0.37677000  1
  Si  Si118  1  0.91209000  0.50000000  0.62323000  1
  Si  Si119  1  0.08791000  0.50000000  0.62323000  1
