# generated using pymatgen
data_O2
_symmetry_space_group_name_H-M   'P 1'
_cell_length_a   18.18069000
_cell_length_b   31.84059000
_cell_length_c   12.64068000
_cell_angle_alpha   90.00000000
_cell_angle_beta   90.00000000
_cell_angle_gamma   90.00000000
_symmetry_Int_Tables_number   1
_chemical_formula_structural   O2
_chemical_formula_sum   O240
_cell_volume   7317.48608911
_cell_formula_units_Z   120
loop_
 _symmetry_equiv_pos_site_id
 _symmetry_equiv_pos_as_xyz
  1  'x, y, z'
loop_
 _atom_site_type_symbol
 _atom_site_label
 _atom_site_symmetry_multiplicity
 _atom_site_fract_x
 _atom_site_fract_y
 _atom_site_fract_z
 _atom_site_occupancy
  O  O0  1  0.36574000  0.19776000  0.64164000  1
  O  O1  1  0.63426000  0.80224000  0.64164000  1
  O  O2  1  0.36574000  0.80224000  0.35836000  1
  O  O3  1  0.63426000  0.19776000  0.35836000  1
  O  O4  1  0.63426000  0.80224000  0.35836000  1
  O  O5  1  0.36574000  0.19776000  0.35836000  1
  O  O6  1  0.63426000  0.19776000  0.64164000  1
  O  O7  1  0.36574000  0.80224000  0.64164000  1
  O  O8  1  0.86574000  0.69776000  0.64164000  1
  O  O9  1  0.13426000  0.30224000  0.64164000  1
  O  O10  1  0.86574000  0.30224000  0.35836000  1
  O  O11  1  0.13426000  0.69776000  0.35836000  1
  O  O12  1  0.13426000  0.30224000  0.35836000  1
  O  O13  1  0.86574000  0.69776000  0.35836000  1
  O  O14  1  0.13426000  0.69776000  0.64164000  1
  O  O15  1  0.86574000  0.30224000  0.64164000  1
  O  O16  1  0.00000000  0.10779000  0.15889000  1
  O  O17  1  0.00000000  0.89221000  0.15889000  1
  O  O18  1  0.00000000  0.89221000  0.84111000  1
  O  O19  1  0.00000000  0.10779000  0.84111000  1
  O  O20  1  0.50000000  0.60779000  0.15889000  1
  O  O21  1  0.50000000  0.39221000  0.15889000  1
  O  O22  1  0.50000000  0.39221000  0.84111000  1
  O  O23  1  0.50000000  0.60779000  0.84111000  1
  O  O24  1  0.50000000  0.00000000  0.36386000  1
  O  O25  1  0.50000000  0.00000000  0.63614000  1
  O  O26  1  0.00000000  0.50000000  0.36386000  1
  O  O27  1  0.00000000  0.50000000  0.63614000  1
  O  O28  1  0.09302000  0.24651000  0.50000000  1
  O  O29  1  0.90698000  0.75349000  0.50000000  1
  O  O30  1  0.09302000  0.75349000  0.50000000  1
  O  O31  1  0.90698000  0.24651000  0.50000000  1
  O  O32  1  0.59302000  0.74651000  0.50000000  1
  O  O33  1  0.40698000  0.25349000  0.50000000  1
  O  O34  1  0.59302000  0.25349000  0.50000000  1
  O  O35  1  0.40698000  0.74651000  0.50000000  1
  O  O36  1  0.50000000  0.22805000  0.35414000  1
  O  O37  1  0.50000000  0.77195000  0.35414000  1
  O  O38  1  0.50000000  0.77195000  0.64586000  1
  O  O39  1  0.50000000  0.22805000  0.64586000  1
  O  O40  1  0.00000000  0.72805000  0.35414000  1
  O  O41  1  0.00000000  0.27195000  0.35414000  1
  O  O42  1  0.00000000  0.27195000  0.64586000  1
  O  O43  1  0.00000000  0.72805000  0.64586000  1
  O  O44  1  0.88199000  0.15437000  0.18949000  1
  O  O45  1  0.11801000  0.84563000  0.18949000  1
  O  O46  1  0.88199000  0.84563000  0.81051000  1
  O  O47  1  0.11801000  0.15437000  0.81051000  1
  O  O48  1  0.11801000  0.84563000  0.81051000  1
  O  O49  1  0.88199000  0.15437000  0.81051000  1
  O  O50  1  0.11801000  0.15437000  0.18949000  1
  O  O51  1  0.88199000  0.84563000  0.18949000  1
  O  O52  1  0.38199000  0.65437000  0.18949000  1
  O  O53  1  0.61801000  0.34563000  0.18949000  1
  O  O54  1  0.38199000  0.34563000  0.81051000  1
  O  O55  1  0.61801000  0.65437000  0.81051000  1
  O  O56  1  0.61801000  0.34563000  0.81051000  1
  O  O57  1  0.38199000  0.65437000  0.81051000  1
  O  O58  1  0.61801000  0.65437000  0.18949000  1
  O  O59  1  0.38199000  0.34563000  0.18949000  1
  O  O60  1  0.24705000  0.05498000  0.39571000  1
  O  O61  1  0.75295000  0.94502000  0.39571000  1
  O  O62  1  0.24705000  0.94502000  0.60429000  1
  O  O63  1  0.75295000  0.05498000  0.60429000  1
  O  O64  1  0.75295000  0.94502000  0.60429000  1
  O  O65  1  0.24705000  0.05498000  0.60429000  1
  O  O66  1  0.75295000  0.05498000  0.39571000  1
  O  O67  1  0.24705000  0.94502000  0.39571000  1
  O  O68  1  0.74705000  0.55498000  0.39571000  1
  O  O69  1  0.25295000  0.44502000  0.39571000  1
  O  O70  1  0.74705000  0.44502000  0.60429000  1
  O  O71  1  0.25295000  0.55498000  0.60429000  1
  O  O72  1  0.25295000  0.44502000  0.60429000  1
  O  O73  1  0.74705000  0.55498000  0.60429000  1
  O  O74  1  0.25295000  0.55498000  0.39571000  1
  O  O75  1  0.74705000  0.44502000  0.39571000  1
  O  O76  1  0.23040000  0.17693000  0.69182000  1
  O  O77  1  0.76960000  0.82307000  0.69182000  1
  O  O78  1  0.23040000  0.82307000  0.30818000  1
  O  O79  1  0.76960000  0.17693000  0.30818000  1
  O  O80  1  0.76960000  0.82307000  0.30818000  1
  O  O81  1  0.23040000  0.17693000  0.30818000  1
  O  O82  1  0.76960000  0.17693000  0.69182000  1
  O  O83  1  0.23040000  0.82307000  0.69182000  1
  O  O84  1  0.73040000  0.67693000  0.69182000  1
  O  O85  1  0.26960000  0.32307000  0.69182000  1
  O  O86  1  0.73040000  0.32307000  0.30818000  1
  O  O87  1  0.26960000  0.67693000  0.30818000  1
  O  O88  1  0.26960000  0.32307000  0.30818000  1
  O  O89  1  0.73040000  0.67693000  0.30818000  1
  O  O90  1  0.26960000  0.67693000  0.69182000  1
  O  O91  1  0.73040000  0.32307000  0.69182000  1
  O  O92  1  0.61004000  0.00000000  0.50000000  1
  O  O93  1  0.38996000  0.00000000  0.50000000  1
  O  O94  1  0.11004000  0.50000000  0.50000000  1
  O  O95  1  0.88996000  0.50000000  0.50000000  1
  O  O96  1  0.19555000  0.00000000  0.84714000  1
  O  O97  1  0.80445000  0.00000000  0.84714000  1
  O  O98  1  0.19555000  0.00000000  0.15286000  1
  O  O99  1  0.80445000  0.00000000  0.15286000  1
  O  O100  1  0.69555000  0.50000000  0.84714000  1
  O  O101  1  0.30445000  0.50000000  0.84714000  1
  O  O102  1  0.69555000  0.50000000  0.15286000  1
  O  O103  1  0.30445000  0.50000000  0.15286000  1
  O  O104  1  0.91371000  0.12734000  0.00000000  1
  O  O105  1  0.08629000  0.87266000  0.00000000  1
  O  O106  1  0.91371000  0.87266000  0.00000000  1
  O  O107  1  0.08629000  0.12734000  0.00000000  1
  O  O108  1  0.41371000  0.62734000  0.00000000  1
  O  O109  1  0.58629000  0.37266000  0.00000000  1
  O  O110  1  0.41371000  0.37266000  0.00000000  1
  O  O111  1  0.58629000  0.62734000  0.00000000  1
  O  O112  1  0.77046000  0.05259000  0.00000000  1
  O  O113  1  0.22954000  0.94741000  0.00000000  1
  O  O114  1  0.77046000  0.94741000  0.00000000  1
  O  O115  1  0.22954000  0.05259000  0.00000000  1
  O  O116  1  0.27046000  0.55259000  0.00000000  1
  O  O117  1  0.72954000  0.44741000  0.00000000  1
  O  O118  1  0.27046000  0.44741000  0.00000000  1
  O  O119  1  0.72954000  0.55259000  0.00000000  1
  O  O120  1  0.11162000  0.22382000  0.30178000  1
  O  O121  1  0.88838000  0.77618000  0.30178000  1
  O  O122  1  0.11162000  0.77618000  0.69822000  1
  O  O123  1  0.88838000  0.22382000  0.69822000  1
  O  O124  1  0.88838000  0.77618000  0.69822000  1
  O  O125  1  0.11162000  0.22382000  0.69822000  1
  O  O126  1  0.88838000  0.22382000  0.30178000  1
  O  O127  1  0.11162000  0.77618000  0.30178000  1
  O  O128  1  0.61162000  0.72382000  0.30178000  1
  O  O129  1  0.38838000  0.27618000  0.30178000  1
  O  O130  1  0.61162000  0.27618000  0.69822000  1
  O  O131  1  0.38838000  0.72382000  0.69822000  1
  O  O132  1  0.38838000  0.27618000  0.69822000  1
  O  O133  1  0.61162000  0.72382000  0.69822000  1
  O  O134  1  0.38838000  0.72382000  0.30178000  1
  O  O135  1  0.61162000  0.27618000  0.30178000  1
  O  O136  1  0.86748000  0.07416000  0.14465000  1
  O  O137  1  0.13252000  0.92584000  0.14465000  1
  O  O138  1  0.86748000  0.92584000  0.85535000  1
  O  O139  1  0.13252000  0.07416000  0.85535000  1
  O  O140  1  0.13252000  0.92584000  0.85535000  1
  O  O141  1  0.86748000  0.07416000  0.85535000  1
  O  O142  1  0.13252000  0.07416000  0.14465000  1
  O  O143  1  0.86748000  0.92584000  0.14465000  1
  O  O144  1  0.36748000  0.57416000  0.14465000  1
  O  O145  1  0.63252000  0.42584000  0.14465000  1
  O  O146  1  0.36748000  0.42584000  0.85535000  1
  O  O147  1  0.63252000  0.57416000  0.85535000  1
  O  O148  1  0.63252000  0.42584000  0.85535000  1
  O  O149  1  0.36748000  0.57416000  0.85535000  1
  O  O150  1  0.63252000  0.57416000  0.14465000  1
  O  O151  1  0.36748000  0.42584000  0.14465000  1
  O  O152  1  0.27979000  0.16181000  0.50000000  1
  O  O153  1  0.72021000  0.83819000  0.50000000  1
  O  O154  1  0.27979000  0.83819000  0.50000000  1
  O  O155  1  0.72021000  0.16181000  0.50000000  1
  O  O156  1  0.77979000  0.66181000  0.50000000  1
  O  O157  1  0.22021000  0.33819000  0.50000000  1
  O  O158  1  0.77979000  0.33819000  0.50000000  1
  O  O159  1  0.22021000  0.66181000  0.50000000  1
  O  O160  1  0.62101000  0.04119000  0.32009000  1
  O  O161  1  0.37899000  0.95881000  0.32009000  1
  O  O162  1  0.62101000  0.95881000  0.67991000  1
  O  O163  1  0.37899000  0.04119000  0.67991000  1
  O  O164  1  0.37899000  0.95881000  0.67991000  1
  O  O165  1  0.62101000  0.04119000  0.67991000  1
  O  O166  1  0.37899000  0.04119000  0.32009000  1
  O  O167  1  0.62101000  0.95881000  0.32009000  1
  O  O168  1  0.12101000  0.54119000  0.32009000  1
  O  O169  1  0.87899000  0.45881000  0.32009000  1
  O  O170  1  0.12101000  0.45881000  0.67991000  1
  O  O171  1  0.87899000  0.54119000  0.67991000  1
  O  O172  1  0.87899000  0.45881000  0.67991000  1
  O  O173  1  0.12101000  0.54119000  0.67991000  1
  O  O174  1  0.87899000  0.54119000  0.32009000  1
  O  O175  1  0.12101000  0.45881000  0.32009000  1
  O  O176  1  0.72722000  0.06779000  0.19434000  1
  O  O177  1  0.27278000  0.93221000  0.19434000  1
  O  O178  1  0.72722000  0.93221000  0.80566000  1
  O  O179  1  0.27278000  0.06779000  0.80566000  1
  O  O180  1  0.27278000  0.93221000  0.80566000  1
  O  O181  1  0.72722000  0.06779000  0.80566000  1
  O  O182  1  0.27278000  0.06779000  0.19434000  1
  O  O183  1  0.72722000  0.93221000  0.19434000  1
  O  O184  1  0.22722000  0.56779000  0.19434000  1
  O  O185  1  0.77278000  0.43221000  0.19434000  1
  O  O186  1  0.22722000  0.43221000  0.80566000  1
  O  O187  1  0.77278000  0.56779000  0.80566000  1
  O  O188  1  0.77278000  0.43221000  0.80566000  1
  O  O189  1  0.22722000  0.56779000  0.80566000  1
  O  O190  1  0.77278000  0.56779000  0.19434000  1
  O  O191  1  0.22722000  0.43221000  0.19434000  1
  O  O192  1  0.67021000  0.11847000  0.33769000  1
  O  O193  1  0.32979000  0.88153000  0.33769000  1
  O  O194  1  0.67021000  0.88153000  0.66231000  1
  O  O195  1  0.32979000  0.11847000  0.66231000  1
  O  O196  1  0.32979000  0.88153000  0.66231000  1
  O  O197  1  0.67021000  0.11847000  0.66231000  1
  O  O198  1  0.32979000  0.11847000  0.33769000  1
  O  O199  1  0.67021000  0.88153000  0.33769000  1
  O  O200  1  0.17021000  0.61847000  0.33769000  1
  O  O201  1  0.82979000  0.38153000  0.33769000  1
  O  O202  1  0.17021000  0.38153000  0.66231000  1
  O  O203  1  0.82979000  0.61847000  0.66231000  1
  O  O204  1  0.82979000  0.38153000  0.66231000  1
  O  O205  1  0.17021000  0.61847000  0.66231000  1
  O  O206  1  0.82979000  0.61847000  0.33769000  1
  O  O207  1  0.17021000  0.38153000  0.33769000  1
  O  O208  1  0.10781000  0.15033000  0.39599000  1
  O  O209  1  0.89219000  0.84967000  0.39599000  1
  O  O210  1  0.10781000  0.84967000  0.60401000  1
  O  O211  1  0.89219000  0.15033000  0.60401000  1
  O  O212  1  0.89219000  0.84967000  0.60401000  1
  O  O213  1  0.10781000  0.15033000  0.60401000  1
  O  O214  1  0.89219000  0.15033000  0.39599000  1
  O  O215  1  0.10781000  0.84967000  0.39599000  1
  O  O216  1  0.60781000  0.65033000  0.39599000  1
  O  O217  1  0.39219000  0.34967000  0.39599000  1
  O  O218  1  0.60781000  0.34967000  0.60401000  1
  O  O219  1  0.39219000  0.65033000  0.60401000  1
  O  O220  1  0.39219000  0.34967000  0.60401000  1
  O  O221  1  0.60781000  0.65033000  0.60401000  1
  O  O222  1  0.39219000  0.65033000  0.39599000  1
  O  O223  1  0.60781000  0.34967000  0.39599000  1
  O  O224  1  0.16825000  0.00000000  0.50000000  1
  O  O225  1  0.83175000  0.00000000  0.50000000  1
  O  O226  1  0.66825000  0.50000000  0.50000000  1
  O  O227  1  0.33175000  0.50000000  0.50000000  1
  O  O228  1  0.87026000  0.07967000  0.50000000  1
  O  O229  1  0.12974000  0.92033000  0.50000000  1
  O  O230  1  0.87026000  0.92033000  0.50000000  1
  O  O231  1  0.12974000  0.07967000  0.50000000  1
  O  O232  1  0.37026000  0.57967000  0.50000000  1
  O  O233  1  0.62974000  0.42033000  0.50000000  1
  O  O234  1  0.37026000  0.42033000  0.50000000  1
  O  O235  1  0.62974000  0.57967000  0.50000000  1
  O  O236  1  0.00000000  0.11423000  0.50000000  1
  O  O237  1  0.00000000  0.88577000  0.50000000  1
  O  O238  1  0.50000000  0.61423000  0.50000000  1
  O  O239  1  0.50000000  0.38577000  0.50000000  1
