# generated using pymatgen
data_O2
_symmetry_space_group_name_H-M   'P 1'
_cell_length_a   5.25600000
_cell_length_b   14.13200000
_cell_length_c   17.22700000
_cell_angle_alpha   90.00000000
_cell_angle_beta   90.00000000
_cell_angle_gamma   90.00000000
_symmetry_Int_Tables_number   1
_chemical_formula_structural   O2
_chemical_formula_sum   O48
_cell_volume   1279.58352278
_cell_formula_units_Z   24
loop_
 _symmetry_equiv_pos_site_id
 _symmetry_equiv_pos_as_xyz
  1  'x, y, z'
loop_
 _atom_site_type_symbol
 _atom_site_label
 _atom_site_symmetry_multiplicity
 _atom_site_fract_x
 _atom_site_fract_y
 _atom_site_fract_z
 _atom_site_occupancy
  O  O0  1  0.00000000  0.17300000  0.11590000  1
  O  O1  1  0.50000000  0.67300000  0.11590000  1
  O  O2  1  0.00000000  0.82700000  0.61590000  1
  O  O3  1  0.50000000  0.32700000  0.61590000  1
  O  O4  1  0.00000000  0.82700000  0.88410000  1
  O  O5  1  0.50000000  0.32700000  0.88410000  1
  O  O6  1  0.00000000  0.17300000  0.38410000  1
  O  O7  1  0.50000000  0.67300000  0.38410000  1
  O  O8  1  0.25000000  0.25000000  0.00000000  1
  O  O9  1  0.75000000  0.75000000  0.00000000  1
  O  O10  1  0.75000000  0.25000000  0.00000000  1
  O  O11  1  0.25000000  0.75000000  0.00000000  1
  O  O12  1  0.25000000  0.75000000  0.50000000  1
  O  O13  1  0.75000000  0.25000000  0.50000000  1
  O  O14  1  0.75000000  0.75000000  0.50000000  1
  O  O15  1  0.25000000  0.25000000  0.50000000  1
  O  O16  1  0.00000000  0.35760000  0.09810000  1
  O  O17  1  0.50000000  0.85760000  0.09810000  1
  O  O18  1  0.00000000  0.64240000  0.59810000  1
  O  O19  1  0.50000000  0.14240000  0.59810000  1
  O  O20  1  0.00000000  0.64240000  0.90190000  1
  O  O21  1  0.50000000  0.14240000  0.90190000  1
  O  O22  1  0.00000000  0.35760000  0.40190000  1
  O  O23  1  0.50000000  0.85760000  0.40190000  1
  O  O24  1  0.75000000  0.01310000  0.13180000  1
  O  O25  1  0.25000000  0.51310000  0.13180000  1
  O  O26  1  0.25000000  0.01310000  0.13180000  1
  O  O27  1  0.75000000  0.51310000  0.13180000  1
  O  O28  1  0.75000000  0.98690000  0.63180000  1
  O  O29  1  0.25000000  0.48690000  0.63180000  1
  O  O30  1  0.25000000  0.98690000  0.63180000  1
  O  O31  1  0.75000000  0.48690000  0.63180000  1
  O  O32  1  0.25000000  0.98690000  0.86820000  1
  O  O33  1  0.75000000  0.48690000  0.86820000  1
  O  O34  1  0.75000000  0.98690000  0.86820000  1
  O  O35  1  0.25000000  0.48690000  0.86820000  1
  O  O36  1  0.25000000  0.01310000  0.36820000  1
  O  O37  1  0.75000000  0.51310000  0.36820000  1
  O  O38  1  0.75000000  0.01310000  0.36820000  1
  O  O39  1  0.25000000  0.51310000  0.36820000  1
  O  O40  1  0.00000000  0.08510000  0.25000000  1
  O  O41  1  0.50000000  0.58510000  0.25000000  1
  O  O42  1  0.00000000  0.91490000  0.75000000  1
  O  O43  1  0.50000000  0.41490000  0.75000000  1
  O  O44  1  0.50000000  0.00000000  0.00000000  1
  O  O45  1  0.00000000  0.50000000  0.00000000  1
  O  O46  1  0.50000000  0.00000000  0.50000000  1
  O  O47  1  0.00000000  0.50000000  0.50000000  1
