# generated using pymatgen
data_SiO4
_symmetry_space_group_name_H-M   'P 1'
_cell_length_a   13.07205000
_cell_length_b   13.07205000
_cell_length_c   30.26179000
_cell_angle_alpha   90.00000000
_cell_angle_beta   90.00000000
_cell_angle_gamma   120.00000000
_symmetry_Int_Tables_number   1
_chemical_formula_structural   SiO4
_chemical_formula_sum   'Si1 O4'
_cell_volume   4478.29445334
_cell_formula_units_Z   1
loop_
 _symmetry_equiv_pos_site_id
 _symmetry_equiv_pos_as_xyz
  1  'x, y, z'
loop_
 _atom_site_type_symbol
 _atom_site_label
 _atom_site_symmetry_multiplicity
 _atom_site_fract_x
 _atom_site_fract_y
 _atom_site_fract_z
 _atom_site_occupancy
  Si  Si0  1  0.23435000  0.99987000  0.80088000  1
  O  O1  1  0.34799000  1.03509000  0.83144000  1
  O  O2  1  0.19376000  1.09688000  0.80656000  1
  O  O3  1  0.26786000  0.99539000  0.75000000  1
  O  O4  1  0.12784000  0.87216000  0.81535000  1
