# generated using pymatgen
data_O2
_symmetry_space_group_name_H-M   'P 1'
_cell_length_a   13.07205000
_cell_length_b   13.07205000
_cell_length_c   30.26179000
_cell_angle_alpha   90.00000000
_cell_angle_beta   90.00000000
_cell_angle_gamma   120.00000000
_symmetry_Int_Tables_number   1
_chemical_formula_structural   O2
_chemical_formula_sum   O144
_cell_volume   4478.29445334
_cell_formula_units_Z   72
loop_
 _symmetry_equiv_pos_site_id
 _symmetry_equiv_pos_as_xyz
  1  'x, y, z'
loop_
 _atom_site_type_symbol
 _atom_site_label
 _atom_site_symmetry_multiplicity
 _atom_site_fract_x
 _atom_site_fract_y
 _atom_site_fract_z
 _atom_site_occupancy
  O  O0  1  0.23454000  0.46908000  0.12485000  1
  O  O1  1  0.53092000  0.76546000  0.12485000  1
  O  O2  1  0.23454000  0.76546000  0.12485000  1
  O  O3  1  0.76546000  0.53092000  0.62485000  1
  O  O4  1  0.46908000  0.23454000  0.62485000  1
  O  O5  1  0.76546000  0.23454000  0.62485000  1
  O  O6  1  0.76546000  0.53092000  0.87515000  1
  O  O7  1  0.46908000  0.23454000  0.87515000  1
  O  O8  1  0.76546000  0.23454000  0.87515000  1
  O  O9  1  0.23454000  0.46908000  0.37515000  1
  O  O10  1  0.53092000  0.76546000  0.37515000  1
  O  O11  1  0.23454000  0.76546000  0.37515000  1
  O  O12  1  0.03509000  0.34799000  0.16856000  1
  O  O13  1  0.65201000  0.68710000  0.16856000  1
  O  O14  1  0.31290000  0.96491000  0.16856000  1
  O  O15  1  0.65201000  0.96491000  0.16856000  1
  O  O16  1  0.03509000  0.68710000  0.16856000  1
  O  O17  1  0.31290000  0.34799000  0.16856000  1
  O  O18  1  0.96491000  0.65201000  0.66856000  1
  O  O19  1  0.34799000  0.31290000  0.66856000  1
  O  O20  1  0.68710000  0.03509000  0.66856000  1
  O  O21  1  0.34799000  0.03509000  0.66856000  1
  O  O22  1  0.96491000  0.31290000  0.66856000  1
  O  O23  1  0.68710000  0.65201000  0.66856000  1
  O  O24  1  0.96491000  0.65201000  0.83144000  1
  O  O25  1  0.34799000  0.31290000  0.83144000  1
  O  O26  1  0.68710000  0.03509000  0.83144000  1
  O  O27  1  0.34799000  0.03509000  0.83144000  1
  O  O28  1  0.96491000  0.31290000  0.83144000  1
  O  O29  1  0.68710000  0.65201000  0.83144000  1
  O  O30  1  0.03509000  0.34799000  0.33144000  1
  O  O31  1  0.65201000  0.68710000  0.33144000  1
  O  O32  1  0.31290000  0.96491000  0.33144000  1
  O  O33  1  0.65201000  0.96491000  0.33144000  1
  O  O34  1  0.03509000  0.68710000  0.33144000  1
  O  O35  1  0.31290000  0.34799000  0.33144000  1
  O  O36  1  0.07660000  0.53830000  0.12512000  1
  O  O37  1  0.46170000  0.53830000  0.12512000  1
  O  O38  1  0.46170000  0.92340000  0.12512000  1
  O  O39  1  0.92340000  0.46170000  0.62512000  1
  O  O40  1  0.53830000  0.46170000  0.62512000  1
  O  O41  1  0.53830000  0.07660000  0.62512000  1
  O  O42  1  0.92340000  0.46170000  0.87488000  1
  O  O43  1  0.53830000  0.46170000  0.87488000  1
  O  O44  1  0.53830000  0.07660000  0.87488000  1
  O  O45  1  0.07660000  0.53830000  0.37488000  1
  O  O46  1  0.46170000  0.53830000  0.37488000  1
  O  O47  1  0.46170000  0.92340000  0.37488000  1
  O  O48  1  0.03413000  0.34761000  0.08173000  1
  O  O49  1  0.65239000  0.68652000  0.08173000  1
  O  O50  1  0.31348000  0.96587000  0.08173000  1
  O  O51  1  0.65239000  0.96587000  0.08173000  1
  O  O52  1  0.03413000  0.68652000  0.08173000  1
  O  O53  1  0.31348000  0.34761000  0.08173000  1
  O  O54  1  0.96587000  0.65239000  0.58173000  1
  O  O55  1  0.34761000  0.31348000  0.58173000  1
  O  O56  1  0.68652000  0.03413000  0.58173000  1
  O  O57  1  0.34761000  0.03413000  0.58173000  1
  O  O58  1  0.96587000  0.31348000  0.58173000  1
  O  O59  1  0.68652000  0.65239000  0.58173000  1
  O  O60  1  0.96587000  0.65239000  0.91827000  1
  O  O61  1  0.34761000  0.31348000  0.91827000  1
  O  O62  1  0.68652000  0.03413000  0.91827000  1
  O  O63  1  0.34761000  0.03413000  0.91827000  1
  O  O64  1  0.96587000  0.31348000  0.91827000  1
  O  O65  1  0.68652000  0.65239000  0.91827000  1
  O  O66  1  0.03413000  0.34761000  0.41827000  1
  O  O67  1  0.65239000  0.68652000  0.41827000  1
  O  O68  1  0.31348000  0.96587000  0.41827000  1
  O  O69  1  0.65239000  0.96587000  0.41827000  1
  O  O70  1  0.03413000  0.68652000  0.41827000  1
  O  O71  1  0.31348000  0.34761000  0.41827000  1
  O  O72  1  0.09688000  0.19376000  0.19344000  1
  O  O73  1  0.80624000  0.90312000  0.19344000  1
  O  O74  1  0.09688000  0.90312000  0.19344000  1
  O  O75  1  0.90312000  0.80624000  0.69344000  1
  O  O76  1  0.19376000  0.09688000  0.69344000  1
  O  O77  1  0.90312000  0.09688000  0.69344000  1
  O  O78  1  0.90312000  0.80624000  0.80656000  1
  O  O79  1  0.19376000  0.09688000  0.80656000  1
  O  O80  1  0.90312000  0.09688000  0.80656000  1
  O  O81  1  0.09688000  0.19376000  0.30656000  1
  O  O82  1  0.80624000  0.90312000  0.30656000  1
  O  O83  1  0.09688000  0.90312000  0.30656000  1
  O  O84  1  0.99539000  0.26786000  0.25000000  1
  O  O85  1  0.73214000  0.72753000  0.25000000  1
  O  O86  1  0.27247000  0.00461000  0.25000000  1
  O  O87  1  0.73214000  0.00461000  0.25000000  1
  O  O88  1  0.99539000  0.72753000  0.25000000  1
  O  O89  1  0.27247000  0.26786000  0.25000000  1
  O  O90  1  0.00461000  0.73214000  0.75000000  1
  O  O91  1  0.26786000  0.27247000  0.75000000  1
  O  O92  1  0.72753000  0.99539000  0.75000000  1
  O  O93  1  0.26786000  0.99539000  0.75000000  1
  O  O94  1  0.00461000  0.27247000  0.75000000  1
  O  O95  1  0.72753000  0.73214000  0.75000000  1
  O  O96  1  0.87216000  0.12784000  0.18465000  1
  O  O97  1  0.87216000  0.74432000  0.18465000  1
  O  O98  1  0.25568000  0.12784000  0.18465000  1
  O  O99  1  0.12784000  0.87216000  0.68465000  1
  O  O100  1  0.12784000  0.25568000  0.68465000  1
  O  O101  1  0.74432000  0.87216000  0.68465000  1
  O  O102  1  0.12784000  0.87216000  0.81535000  1
  O  O103  1  0.12784000  0.25568000  0.81535000  1
  O  O104  1  0.74432000  0.87216000  0.81535000  1
  O  O105  1  0.87216000  0.12784000  0.31535000  1
  O  O106  1  0.87216000  0.74432000  0.31535000  1
  O  O107  1  0.25568000  0.12784000  0.31535000  1
  O  O108  1  0.09679000  0.19358000  0.05760000  1
  O  O109  1  0.80642000  0.90321000  0.05760000  1
  O  O110  1  0.09679000  0.90321000  0.05760000  1
  O  O111  1  0.90321000  0.80642000  0.55760000  1
  O  O112  1  0.19358000  0.09679000  0.55760000  1
  O  O113  1  0.90321000  0.09679000  0.55760000  1
  O  O114  1  0.90321000  0.80642000  0.94240000  1
  O  O115  1  0.19358000  0.09679000  0.94240000  1
  O  O116  1  0.90321000  0.09679000  0.94240000  1
  O  O117  1  0.09679000  0.19358000  0.44240000  1
  O  O118  1  0.80642000  0.90321000  0.44240000  1
  O  O119  1  0.09679000  0.90321000  0.44240000  1
  O  O120  1  0.00000000  0.27011000  0.00000000  1
  O  O121  1  0.72989000  0.72989000  0.00000000  1
  O  O122  1  0.27011000  0.00000000  0.00000000  1
  O  O123  1  0.72989000  0.00000000  0.00000000  1
  O  O124  1  0.00000000  0.72989000  0.00000000  1
  O  O125  1  0.27011000  0.27011000  0.00000000  1
  O  O126  1  0.00000000  0.72989000  0.50000000  1
  O  O127  1  0.27011000  0.27011000  0.50000000  1
  O  O128  1  0.72989000  0.00000000  0.50000000  1
  O  O129  1  0.27011000  0.00000000  0.50000000  1
  O  O130  1  0.00000000  0.27011000  0.50000000  1
  O  O131  1  0.72989000  0.72989000  0.50000000  1
  O  O132  1  0.87164000  0.12836000  0.06426000  1
  O  O133  1  0.87164000  0.74328000  0.06426000  1
  O  O134  1  0.25672000  0.12836000  0.06426000  1
  O  O135  1  0.12836000  0.87164000  0.56426000  1
  O  O136  1  0.12836000  0.25672000  0.56426000  1
  O  O137  1  0.74328000  0.87164000  0.56426000  1
  O  O138  1  0.12836000  0.87164000  0.93574000  1
  O  O139  1  0.12836000  0.25672000  0.93574000  1
  O  O140  1  0.74328000  0.87164000  0.93574000  1
  O  O141  1  0.87164000  0.12836000  0.43574000  1
  O  O142  1  0.87164000  0.74328000  0.43574000  1
  O  O143  1  0.25672000  0.12836000  0.43574000  1
