# generated using pymatgen
data_O2
_symmetry_space_group_name_H-M   'P 1'
_cell_length_a   7.18350000
_cell_length_b   7.18350000
_cell_length_c   12.04260000
_cell_angle_alpha   90.00000000
_cell_angle_beta   90.00000000
_cell_angle_gamma   90.00000000
_symmetry_Int_Tables_number   1
_chemical_formula_structural   O2
_chemical_formula_sum   O20
_cell_volume   621.43034084
_cell_formula_units_Z   10
loop_
 _symmetry_equiv_pos_site_id
 _symmetry_equiv_pos_as_xyz
  1  'x, y, z'
loop_
 _atom_site_type_symbol
 _atom_site_label
 _atom_site_symmetry_multiplicity
 _atom_site_fract_x
 _atom_site_fract_y
 _atom_site_fract_z
 _atom_site_occupancy
  O  O0  1  0.00000000  0.18253000  0.07783000  1
  O  O1  1  0.00000000  0.81747000  0.07783000  1
  O  O2  1  0.81747000  0.00000000  0.92217000  1
  O  O3  1  0.18253000  0.00000000  0.92217000  1
  O  O4  1  0.50000000  0.68253000  0.57783000  1
  O  O5  1  0.50000000  0.31747000  0.57783000  1
  O  O6  1  0.31747000  0.50000000  0.42217000  1
  O  O7  1  0.68253000  0.50000000  0.42217000  1
  O  O8  1  0.00000000  0.00000000  0.73644000  1
  O  O9  1  0.00000000  0.00000000  0.26356000  1
  O  O10  1  0.50000000  0.50000000  0.23644000  1
  O  O11  1  0.50000000  0.50000000  0.76356000  1
  O  O12  1  0.31630000  0.81630000  0.75000000  1
  O  O13  1  0.68370000  0.18370000  0.75000000  1
  O  O14  1  0.68370000  0.81630000  0.75000000  1
  O  O15  1  0.31630000  0.18370000  0.75000000  1
  O  O16  1  0.18370000  0.31630000  0.25000000  1
  O  O17  1  0.81630000  0.68370000  0.25000000  1
  O  O18  1  0.81630000  0.31630000  0.25000000  1
  O  O19  1  0.18370000  0.68370000  0.25000000  1
