# generated using pymatgen
data_SiO4
_symmetry_space_group_name_H-M   'P 1'
_cell_length_a   12.56550000
_cell_length_b   11.66150000
_cell_length_c   21.93030000
_cell_angle_alpha   90.00000000
_cell_angle_beta   90.00000000
_cell_angle_gamma   90.00000000
_symmetry_Int_Tables_number   1
_chemical_formula_structural   SiO4
_chemical_formula_sum   'Si1 O4'
_cell_volume   3213.50340080
_cell_formula_units_Z   1
loop_
 _symmetry_equiv_pos_site_id
 _symmetry_equiv_pos_as_xyz
  1  'x, y, z'
loop_
 _atom_site_type_symbol
 _atom_site_label
 _atom_site_symmetry_multiplicity
 _atom_site_fract_x
 _atom_site_fract_y
 _atom_site_fract_z
 _atom_site_occupancy
  Si  Si0  1  0.68429000  0.24973000  0.63854000  1
  O  O1  1  0.60486000  0.30511000  0.68795000  1
  O  O2  1  0.64755000  0.28499000  0.57082000  1
  O  O3  1  0.80380000  0.29347000  0.65115000  1
  O  O4  1  0.68136000  0.11225000  0.64487000  1
