# generated using pymatgen
data_SiO4
_symmetry_space_group_name_H-M   'P 1'
_cell_length_a   12.56550000
_cell_length_b   11.66150000
_cell_length_c   21.93030000
_cell_angle_alpha   90.00000000
_cell_angle_beta   90.00000000
_cell_angle_gamma   90.00000000
_symmetry_Int_Tables_number   1
_chemical_formula_structural   SiO4
_chemical_formula_sum   'Si1 O4'
_cell_volume   3213.50340080
_cell_formula_units_Z   1
loop_
 _symmetry_equiv_pos_site_id
 _symmetry_equiv_pos_as_xyz
  1  'x, y, z'
loop_
 _atom_site_type_symbol
 _atom_site_label
 _atom_site_symmetry_multiplicity
 _atom_site_fract_x
 _atom_site_fract_y
 _atom_site_fract_z
 _atom_site_occupancy
  Si  Si0  1  0.50000000  0.86828000  0.21329000  1
  O  O1  1  0.60486000  0.80511000  0.18795000  1
  O  O2  1  0.39514000  0.80511000  0.18795000  1
  O  O3  1  0.50000000  1.00000000  0.19133000  1
  O  O4  1  0.50000000  0.86266000  0.28655000  1
