# generated using pymatgen
data_Si
_symmetry_space_group_name_H-M   'P 1'
_cell_length_a   12.56550000
_cell_length_b   11.66150000
_cell_length_c   21.93030000
_cell_angle_alpha   90.00000000
_cell_angle_beta   90.00000000
_cell_angle_gamma   90.00000000
_symmetry_Int_Tables_number   1
_chemical_formula_structural   Si
_chemical_formula_sum   Si56
_cell_volume   3213.50340080
_cell_formula_units_Z   56
loop_
 _symmetry_equiv_pos_site_id
 _symmetry_equiv_pos_as_xyz
  1  'x, y, z'
loop_
 _atom_site_type_symbol
 _atom_site_label
 _atom_site_symmetry_multiplicity
 _atom_site_fract_x
 _atom_site_fract_y
 _atom_site_fract_z
 _atom_site_occupancy
  Si  Si0  1  0.87879000  0.36722000  0.69593000  1
  Si  Si1  1  0.12121000  0.63278000  0.69593000  1
  Si  Si2  1  0.12121000  0.36722000  0.69593000  1
  Si  Si3  1  0.87879000  0.63278000  0.69593000  1
  Si  Si4  1  0.87879000  0.86722000  0.19593000  1
  Si  Si5  1  0.12121000  0.13278000  0.19593000  1
  Si  Si6  1  0.12121000  0.86722000  0.19593000  1
  Si  Si7  1  0.87879000  0.13278000  0.19593000  1
  Si  Si8  1  0.68429000  0.24973000  0.63854000  1
  Si  Si9  1  0.31571000  0.75027000  0.63854000  1
  Si  Si10  1  0.31571000  0.24973000  0.63854000  1
  Si  Si11  1  0.68429000  0.75027000  0.63854000  1
  Si  Si12  1  0.68429000  0.74973000  0.13854000  1
  Si  Si13  1  0.31571000  0.25027000  0.13854000  1
  Si  Si14  1  0.31571000  0.74973000  0.13854000  1
  Si  Si15  1  0.68429000  0.25027000  0.13854000  1
  Si  Si16  1  0.87509000  0.36944000  0.83540000  1
  Si  Si17  1  0.12491000  0.63056000  0.83540000  1
  Si  Si18  1  0.12491000  0.36944000  0.83540000  1
  Si  Si19  1  0.87509000  0.63056000  0.83540000  1
  Si  Si20  1  0.87509000  0.86944000  0.33540000  1
  Si  Si21  1  0.12491000  0.13056000  0.33540000  1
  Si  Si22  1  0.12491000  0.86944000  0.33540000  1
  Si  Si23  1  0.87509000  0.13056000  0.33540000  1
  Si  Si24  1  0.70000000  0.28561000  0.39087000  1
  Si  Si25  1  0.30000000  0.71439000  0.39087000  1
  Si  Si26  1  0.30000000  0.28561000  0.39087000  1
  Si  Si27  1  0.70000000  0.71439000  0.39087000  1
  Si  Si28  1  0.70000000  0.78561000  0.89087000  1
  Si  Si29  1  0.30000000  0.21439000  0.89087000  1
  Si  Si30  1  0.30000000  0.78561000  0.89087000  1
  Si  Si31  1  0.70000000  0.21439000  0.89087000  1
  Si  Si32  1  0.62194000  0.36883000  0.51443000  1
  Si  Si33  1  0.37806000  0.63117000  0.51443000  1
  Si  Si34  1  0.37806000  0.36883000  0.51443000  1
  Si  Si35  1  0.62194000  0.63117000  0.51443000  1
  Si  Si36  1  0.62194000  0.86883000  0.01443000  1
  Si  Si37  1  0.37806000  0.13117000  0.01443000  1
  Si  Si38  1  0.37806000  0.86883000  0.01443000  1
  Si  Si39  1  0.62194000  0.13117000  0.01443000  1
  Si  Si40  1  0.50000000  0.36827000  0.85980000  1
  Si  Si41  1  0.50000000  0.63173000  0.85980000  1
  Si  Si42  1  0.50000000  0.86827000  0.35980000  1
  Si  Si43  1  0.50000000  0.13173000  0.35980000  1
  Si  Si44  1  0.50000000  0.36828000  0.71329000  1
  Si  Si45  1  0.50000000  0.63172000  0.71329000  1
  Si  Si46  1  0.50000000  0.86828000  0.21329000  1
  Si  Si47  1  0.50000000  0.13172000  0.21329000  1
  Si  Si48  1  0.62217000  0.50000000  0.17085000  1
  Si  Si49  1  0.37783000  0.50000000  0.17085000  1
  Si  Si50  1  0.62217000  0.00000000  0.67085000  1
  Si  Si51  1  0.37783000  0.00000000  0.67085000  1
  Si  Si52  1  0.62229000  0.50000000  0.31742000  1
  Si  Si53  1  0.37771000  0.50000000  0.31742000  1
  Si  Si54  1  0.62229000  0.00000000  0.81742000  1
  Si  Si55  1  0.37771000  0.00000000  0.81742000  1
