# generated using pymatgen
data_O2
_symmetry_space_group_name_H-M   'P 1'
_cell_length_a   12.56550000
_cell_length_b   11.66150000
_cell_length_c   21.93030000
_cell_angle_alpha   90.00000000
_cell_angle_beta   90.00000000
_cell_angle_gamma   90.00000000
_symmetry_Int_Tables_number   1
_chemical_formula_structural   O2
_chemical_formula_sum   O112
_cell_volume   3213.50340080
_cell_formula_units_Z   56
loop_
 _symmetry_equiv_pos_site_id
 _symmetry_equiv_pos_as_xyz
  1  'x, y, z'
loop_
 _atom_site_type_symbol
 _atom_site_label
 _atom_site_symmetry_multiplicity
 _atom_site_fract_x
 _atom_site_fract_y
 _atom_site_fract_z
 _atom_site_occupancy
  O  O0  1  0.68211000  0.38720000  0.34227000  1
  O  O1  1  0.31789000  0.61280000  0.34227000  1
  O  O2  1  0.31789000  0.38720000  0.34227000  1
  O  O3  1  0.68211000  0.61280000  0.34227000  1
  O  O4  1  0.68211000  0.88720000  0.84227000  1
  O  O5  1  0.31789000  0.11280000  0.84227000  1
  O  O6  1  0.31789000  0.88720000  0.84227000  1
  O  O7  1  0.68211000  0.11280000  0.84227000  1
  O  O8  1  0.64016000  0.50000000  0.53486000  1
  O  O9  1  0.35984000  0.50000000  0.53486000  1
  O  O10  1  0.64016000  0.00000000  0.03486000  1
  O  O11  1  0.35984000  0.00000000  0.03486000  1
  O  O12  1  0.70052000  0.33874000  0.45865000  1
  O  O13  1  0.29948000  0.66126000  0.45865000  1
  O  O14  1  0.29948000  0.33874000  0.45865000  1
  O  O15  1  0.70052000  0.66126000  0.45865000  1
  O  O16  1  0.70052000  0.83874000  0.95865000  1
  O  O17  1  0.29948000  0.16126000  0.95865000  1
  O  O18  1  0.29948000  0.83874000  0.95865000  1
  O  O19  1  0.70052000  0.16126000  0.95865000  1
  O  O20  1  0.60486000  0.30511000  0.68795000  1
  O  O21  1  0.39514000  0.69489000  0.68795000  1
  O  O22  1  0.39514000  0.30511000  0.68795000  1
  O  O23  1  0.60486000  0.69489000  0.68795000  1
  O  O24  1  0.60486000  0.80511000  0.18795000  1
  O  O25  1  0.39514000  0.19489000  0.18795000  1
  O  O26  1  0.39514000  0.80511000  0.18795000  1
  O  O27  1  0.60486000  0.19489000  0.18795000  1
  O  O28  1  0.85314000  0.50000000  0.85585000  1
  O  O29  1  0.14686000  0.50000000  0.85585000  1
  O  O30  1  0.85314000  0.00000000  0.35585000  1
  O  O31  1  0.14686000  0.00000000  0.35585000  1
  O  O32  1  0.00000000  0.34148000  0.84169000  1
  O  O33  1  0.00000000  0.65852000  0.84169000  1
  O  O34  1  0.00000000  0.84148000  0.34169000  1
  O  O35  1  0.00000000  0.15852000  0.34169000  1
  O  O36  1  0.64755000  0.28499000  0.57082000  1
  O  O37  1  0.35245000  0.71501000  0.57082000  1
  O  O38  1  0.35245000  0.28499000  0.57082000  1
  O  O39  1  0.64755000  0.71501000  0.57082000  1
  O  O40  1  0.64755000  0.78499000  0.07082000  1
  O  O41  1  0.35245000  0.21501000  0.07082000  1
  O  O42  1  0.35245000  0.78499000  0.07082000  1
  O  O43  1  0.64755000  0.21501000  0.07082000  1
  O  O44  1  0.80380000  0.29347000  0.65115000  1
  O  O45  1  0.19620000  0.70653000  0.65115000  1
  O  O46  1  0.19620000  0.29347000  0.65115000  1
  O  O47  1  0.80380000  0.70653000  0.65115000  1
  O  O48  1  0.80380000  0.79347000  0.15115000  1
  O  O49  1  0.19620000  0.20653000  0.15115000  1
  O  O50  1  0.19620000  0.79347000  0.15115000  1
  O  O51  1  0.80380000  0.20653000  0.15115000  1
  O  O52  1  0.68136000  0.11225000  0.64487000  1
  O  O53  1  0.31864000  0.88775000  0.64487000  1
  O  O54  1  0.31864000  0.11225000  0.64487000  1
  O  O55  1  0.68136000  0.88775000  0.64487000  1
  O  O56  1  0.68136000  0.61225000  0.14487000  1
  O  O57  1  0.31864000  0.38775000  0.14487000  1
  O  O58  1  0.31864000  0.61225000  0.14487000  1
  O  O59  1  0.68136000  0.38775000  0.14487000  1
  O  O60  1  0.83940000  0.35320000  0.76539000  1
  O  O61  1  0.16060000  0.64680000  0.76539000  1
  O  O62  1  0.16060000  0.35320000  0.76539000  1
  O  O63  1  0.83940000  0.64680000  0.76539000  1
  O  O64  1  0.83940000  0.85320000  0.26539000  1
  O  O65  1  0.16060000  0.14680000  0.26539000  1
  O  O66  1  0.16060000  0.85320000  0.26539000  1
  O  O67  1  0.83940000  0.14680000  0.26539000  1
  O  O68  1  0.50000000  0.35187000  0.49367000  1
  O  O69  1  0.50000000  0.64813000  0.49367000  1
  O  O70  1  0.50000000  0.85187000  0.99367000  1
  O  O71  1  0.50000000  0.14813000  0.99367000  1
  O  O72  1  0.80983000  0.21906000  0.37758000  1
  O  O73  1  0.19017000  0.78094000  0.37758000  1
  O  O74  1  0.19017000  0.21906000  0.37758000  1
  O  O75  1  0.80983000  0.78094000  0.37758000  1
  O  O76  1  0.80983000  0.71906000  0.87758000  1
  O  O77  1  0.19017000  0.28094000  0.87758000  1
  O  O78  1  0.19017000  0.71906000  0.87758000  1
  O  O79  1  0.80983000  0.28094000  0.87758000  1
  O  O80  1  0.50000000  0.50000000  0.88173000  1
  O  O81  1  0.50000000  0.00000000  0.38173000  1
  O  O82  1  0.00000000  0.32364000  0.69019000  1
  O  O83  1  0.00000000  0.67636000  0.69019000  1
  O  O84  1  0.00000000  0.82364000  0.19019000  1
  O  O85  1  0.00000000  0.17636000  0.19019000  1
  O  O86  1  0.39563000  0.30570000  0.88616000  1
  O  O87  1  0.60437000  0.69430000  0.88616000  1
  O  O88  1  0.60437000  0.30570000  0.88616000  1
  O  O89  1  0.39563000  0.69430000  0.88616000  1
  O  O90  1  0.39563000  0.80570000  0.38616000  1
  O  O91  1  0.60437000  0.19430000  0.38616000  1
  O  O92  1  0.60437000  0.80570000  0.38616000  1
  O  O93  1  0.39563000  0.19430000  0.38616000  1
  O  O94  1  0.62690000  0.50000000  0.24412000  1
  O  O95  1  0.37310000  0.50000000  0.24412000  1
  O  O96  1  0.62690000  0.00000000  0.74412000  1
  O  O97  1  0.37310000  0.00000000  0.74412000  1
  O  O98  1  0.50000000  0.50000000  0.69133000  1
  O  O99  1  0.50000000  0.00000000  0.19133000  1
  O  O100  1  0.50000000  0.36266000  0.78655000  1
  O  O101  1  0.50000000  0.63734000  0.78655000  1
  O  O102  1  0.50000000  0.86266000  0.28655000  1
  O  O103  1  0.50000000  0.13734000  0.28655000  1
  O  O104  1  0.87255000  0.50000000  0.67624000  1
  O  O105  1  0.12745000  0.50000000  0.67624000  1
  O  O106  1  0.87255000  0.00000000  0.17624000  1
  O  O107  1  0.12745000  0.00000000  0.17624000  1
  O  O108  1  0.50000000  0.50000000  0.14874000  1
  O  O109  1  0.50000000  0.00000000  0.64874000  1
  O  O110  1  0.50000000  0.50000000  0.33936000  1
  O  O111  1  0.50000000  0.00000000  0.83936000  1
