# generated using pymatgen
data_Si
_symmetry_space_group_name_H-M   'P 1'
_cell_length_a   8.44400000
_cell_length_b   14.08300000
_cell_length_c   15.92900000
_cell_angle_alpha   90.00000000
_cell_angle_beta   90.00000000
_cell_angle_gamma   90.00000000
_symmetry_Int_Tables_number   1
_chemical_formula_structural   Si
_chemical_formula_sum   Si32
_cell_volume   1894.22653551
_cell_formula_units_Z   32
loop_
 _symmetry_equiv_pos_site_id
 _symmetry_equiv_pos_as_xyz
  1  'x, y, z'
loop_
 _atom_site_type_symbol
 _atom_site_label
 _atom_site_symmetry_multiplicity
 _atom_site_fract_x
 _atom_site_fract_y
 _atom_site_fract_z
 _atom_site_occupancy
  Si  Si0  1  0.82450000  0.14170000  0.15960000  1
  Si  Si1  1  0.67550000  0.64170000  0.65960000  1
  Si  Si2  1  0.82450000  0.35830000  0.15960000  1
  Si  Si3  1  0.67550000  0.85830000  0.65960000  1
  Si  Si4  1  0.17550000  0.85830000  0.84040000  1
  Si  Si5  1  0.32450000  0.35830000  0.34040000  1
  Si  Si6  1  0.17550000  0.64170000  0.84040000  1
  Si  Si7  1  0.32450000  0.14170000  0.34040000  1
  Si  Si8  1  0.55580000  0.35890000  0.03290000  1
  Si  Si9  1  0.94420000  0.85890000  0.53290000  1
  Si  Si10  1  0.55580000  0.14110000  0.03290000  1
  Si  Si11  1  0.94420000  0.64110000  0.53290000  1
  Si  Si12  1  0.44420000  0.64110000  0.96710000  1
  Si  Si13  1  0.05580000  0.14110000  0.46710000  1
  Si  Si14  1  0.44420000  0.85890000  0.96710000  1
  Si  Si15  1  0.05580000  0.35890000  0.46710000  1
  Si  Si16  1  0.11280000  0.46950000  0.22120000  1
  Si  Si17  1  0.38720000  0.96950000  0.72120000  1
  Si  Si18  1  0.11280000  0.03050000  0.22120000  1
  Si  Si19  1  0.38720000  0.53050000  0.72120000  1
  Si  Si20  1  0.88720000  0.53050000  0.77880000  1
  Si  Si21  1  0.61280000  0.03050000  0.27880000  1
  Si  Si22  1  0.88720000  0.96950000  0.77880000  1
  Si  Si23  1  0.61280000  0.46950000  0.27880000  1
  Si  Si24  1  0.41040000  0.97340000  0.12960000  1
  Si  Si25  1  0.08960000  0.47340000  0.62960000  1
  Si  Si26  1  0.41040000  0.52660000  0.12960000  1
  Si  Si27  1  0.08960000  0.02660000  0.62960000  1
  Si  Si28  1  0.58960000  0.02660000  0.87040000  1
  Si  Si29  1  0.91040000  0.52660000  0.37040000  1
  Si  Si30  1  0.58960000  0.47340000  0.87040000  1
  Si  Si31  1  0.91040000  0.97340000  0.37040000  1
