# generated using pymatgen
data_O2
_symmetry_space_group_name_H-M   'P 1'
_cell_length_a   8.44400000
_cell_length_b   14.08300000
_cell_length_c   15.92900000
_cell_angle_alpha   90.00000000
_cell_angle_beta   90.00000000
_cell_angle_gamma   90.00000000
_symmetry_Int_Tables_number   1
_chemical_formula_structural   O2
_chemical_formula_sum   O64
_cell_volume   1894.22653551
_cell_formula_units_Z   32
loop_
 _symmetry_equiv_pos_site_id
 _symmetry_equiv_pos_as_xyz
  1  'x, y, z'
loop_
 _atom_site_type_symbol
 _atom_site_label
 _atom_site_symmetry_multiplicity
 _atom_site_fract_x
 _atom_site_fract_y
 _atom_site_fract_z
 _atom_site_occupancy
  O  O0  1  0.88390000  0.25000000  0.16740000  1
  O  O1  1  0.61610000  0.75000000  0.66740000  1
  O  O2  1  0.11610000  0.75000000  0.83260000  1
  O  O3  1  0.38390000  0.25000000  0.33260000  1
  O  O4  1  0.72980000  0.12830000  0.07270000  1
  O  O5  1  0.77020000  0.62830000  0.57270000  1
  O  O6  1  0.72980000  0.37170000  0.07270000  1
  O  O7  1  0.77020000  0.87170000  0.57270000  1
  O  O8  1  0.27020000  0.87170000  0.92730000  1
  O  O9  1  0.22980000  0.37170000  0.42730000  1
  O  O10  1  0.27020000  0.62830000  0.92730000  1
  O  O11  1  0.22980000  0.12830000  0.42730000  1
  O  O12  1  0.97500000  0.07150000  0.16150000  1
  O  O13  1  0.52500000  0.57150000  0.66150000  1
  O  O14  1  0.97500000  0.42850000  0.16150000  1
  O  O15  1  0.52500000  0.92850000  0.66150000  1
  O  O16  1  0.02500000  0.92850000  0.83850000  1
  O  O17  1  0.47500000  0.42850000  0.33850000  1
  O  O18  1  0.02500000  0.57150000  0.83850000  1
  O  O19  1  0.47500000  0.07150000  0.33850000  1
  O  O20  1  0.70860000  0.11730000  0.23700000  1
  O  O21  1  0.79140000  0.61730000  0.73700000  1
  O  O22  1  0.70860000  0.38270000  0.23700000  1
  O  O23  1  0.79140000  0.88270000  0.73700000  1
  O  O24  1  0.29140000  0.88270000  0.76300000  1
  O  O25  1  0.20860000  0.38270000  0.26300000  1
  O  O26  1  0.29140000  0.61730000  0.76300000  1
  O  O27  1  0.20860000  0.11730000  0.26300000  1
  O  O28  1  0.56010000  0.38730000  0.93500000  1
  O  O29  1  0.93990000  0.88730000  0.43500000  1
  O  O30  1  0.56010000  0.11270000  0.93500000  1
  O  O31  1  0.93990000  0.61270000  0.43500000  1
  O  O32  1  0.43990000  0.61270000  0.06500000  1
  O  O33  1  0.06010000  0.11270000  0.56500000  1
  O  O34  1  0.43990000  0.88730000  0.06500000  1
  O  O35  1  0.06010000  0.38730000  0.56500000  1
  O  O36  1  0.43300000  0.42700000  0.08150000  1
  O  O37  1  0.06700000  0.92700000  0.58150000  1
  O  O38  1  0.43300000  0.07300000  0.08150000  1
  O  O39  1  0.06700000  0.57300000  0.58150000  1
  O  O40  1  0.56700000  0.57300000  0.91850000  1
  O  O41  1  0.93300000  0.07300000  0.41850000  1
  O  O42  1  0.56700000  0.92700000  0.91850000  1
  O  O43  1  0.93300000  0.42700000  0.41850000  1
  O  O44  1  0.50080000  0.25000000  0.04240000  1
  O  O45  1  0.99920000  0.75000000  0.54240000  1
  O  O46  1  0.49920000  0.75000000  0.95760000  1
  O  O47  1  0.00080000  0.25000000  0.45760000  1
  O  O48  1  0.03520000  0.53350000  0.29420000  1
  O  O49  1  0.46480000  0.03350000  0.79420000  1
  O  O50  1  0.03520000  0.96650000  0.29420000  1
  O  O51  1  0.46480000  0.46650000  0.79420000  1
  O  O52  1  0.96480000  0.46650000  0.70580000  1
  O  O53  1  0.53520000  0.96650000  0.20580000  1
  O  O54  1  0.96480000  0.03350000  0.70580000  1
  O  O55  1  0.53520000  0.53350000  0.20580000  1
  O  O56  1  0.23300000  0.53300000  0.16640000  1
  O  O57  1  0.26700000  0.03300000  0.66640000  1
  O  O58  1  0.23300000  0.96700000  0.16640000  1
  O  O59  1  0.26700000  0.46700000  0.66640000  1
  O  O60  1  0.76700000  0.46700000  0.83360000  1
  O  O61  1  0.73300000  0.96700000  0.33360000  1
  O  O62  1  0.76700000  0.03300000  0.83360000  1
  O  O63  1  0.73300000  0.53300000  0.33360000  1
