# generated using pymatgen
data_SiO4
_symmetry_space_group_name_H-M   'P 1'
_cell_length_a   8.44400000
_cell_length_b   14.08300000
_cell_length_c   15.92900000
_cell_angle_alpha   90.00000000
_cell_angle_beta   90.00000000
_cell_angle_gamma   90.00000000
_symmetry_Int_Tables_number   1
_chemical_formula_structural   SiO4
_chemical_formula_sum   'Si1 O4'
_cell_volume   1894.22653551
_cell_formula_units_Z   1
loop_
 _symmetry_equiv_pos_site_id
 _symmetry_equiv_pos_as_xyz
  1  'x, y, z'
loop_
 _atom_site_type_symbol
 _atom_site_label
 _atom_site_symmetry_multiplicity
 _atom_site_fract_x
 _atom_site_fract_y
 _atom_site_fract_z
 _atom_site_occupancy
  Si  Si0  1  0.67550000  0.85830000  0.65960000  1
  O  O1  1  0.61610000  0.75000000  0.66740000  1
  O  O2  1  0.77020000  0.87170000  0.57270000  1
  O  O3  1  0.52500000  0.92850000  0.66150000  1
  O  O4  1  0.79140000  0.88270000  0.73700000  1
