# generated using pymatgen
data_SiO4
_symmetry_space_group_name_H-M   'P 1'
_cell_length_a   8.44400000
_cell_length_b   14.08300000
_cell_length_c   15.92900000
_cell_angle_alpha   90.00000000
_cell_angle_beta   90.00000000
_cell_angle_gamma   90.00000000
_symmetry_Int_Tables_number   1
_chemical_formula_structural   SiO4
_chemical_formula_sum   'Si1 O4'
_cell_volume   1894.22653551
_cell_formula_units_Z   1
loop_
 _symmetry_equiv_pos_site_id
 _symmetry_equiv_pos_as_xyz
  1  'x, y, z'
loop_
 _atom_site_type_symbol
 _atom_site_label
 _atom_site_symmetry_multiplicity
 _atom_site_fract_x
 _atom_site_fract_y
 _atom_site_fract_z
 _atom_site_occupancy
  Si  Si0  1  0.44420000  0.64110000  0.96710000  1
  O  O1  1  0.27020000  0.62830000  0.92730000  1
  O  O2  1  0.43990000  0.61270000  1.06500000  1
  O  O3  1  0.56700000  0.57300000  0.91850000  1
  O  O4  1  0.49920000  0.75000000  0.95760000  1
