# generated using pymatgen
data_SiO4
_symmetry_space_group_name_H-M   'P 1'
_cell_length_a   15.00987000
_cell_length_b   12.68314000
_cell_length_c   14.71080000
_cell_angle_alpha   103.29060000
_cell_angle_beta   90.85100000
_cell_angle_gamma   100.63460000
_symmetry_Int_Tables_number   1
_chemical_formula_structural   SiO4
_chemical_formula_sum   'Si1 O4'
_cell_volume   2673.90053470
_cell_formula_units_Z   1
loop_
 _symmetry_equiv_pos_site_id
 _symmetry_equiv_pos_as_xyz
  1  'x, y, z'
loop_
 _atom_site_type_symbol
 _atom_site_label
 _atom_site_symmetry_multiplicity
 _atom_site_fract_x
 _atom_site_fract_y
 _atom_site_fract_z
 _atom_site_occupancy
  Si  Si0  1  0.90010000  0.28128000  0.42467000  1
  O  O1  1  0.99450000  0.23820000  0.42101000  1
  O  O2  1  0.81860000  0.17885000  0.42095000  1
  O  O3  1  0.88973300  0.33465000  0.33761000  1
  O  O4  1  0.89890000  0.37403000  0.51883000  1
