# generated using pymatgen
data_Si
_symmetry_space_group_name_H-M   'P 1'
_cell_length_a   15.00987000
_cell_length_b   12.68314000
_cell_length_c   14.71080000
_cell_angle_alpha   103.29060000
_cell_angle_beta   90.85100000
_cell_angle_gamma   100.63460000
_symmetry_Int_Tables_number   1
_chemical_formula_structural   Si
_chemical_formula_sum   Si48
_cell_volume   2673.90053470
_cell_formula_units_Z   48
loop_
 _symmetry_equiv_pos_site_id
 _symmetry_equiv_pos_as_xyz
  1  'x, y, z'
loop_
 _atom_site_type_symbol
 _atom_site_label
 _atom_site_symmetry_multiplicity
 _atom_site_fract_x
 _atom_site_fract_y
 _atom_site_fract_z
 _atom_site_occupancy
  Si  Si0  1  0.03946700  0.10120000  0.64452000  1
  Si  Si1  1  0.96053300  0.89880000  0.35548000  1
  Si  Si2  1  0.37280000  0.10120000  0.64452000  1
  Si  Si3  1  0.62720000  0.89880000  0.35548000  1
  Si  Si4  1  0.70613300  0.10120000  0.64452000  1
  Si  Si5  1  0.29386700  0.89880000  0.35548000  1
  Si  Si6  1  0.21940000  0.44527000  0.30355000  1
  Si  Si7  1  0.78060000  0.55473000  0.69645000  1
  Si  Si8  1  0.55273300  0.44527000  0.30355000  1
  Si  Si9  1  0.44726700  0.55473000  0.69645000  1
  Si  Si10  1  0.88606700  0.44527000  0.30355000  1
  Si  Si11  1  0.11393300  0.55473000  0.69645000  1
  Si  Si12  1  0.22336700  0.21830000  0.73087000  1
  Si  Si13  1  0.77663300  0.78170000  0.26913000  1
  Si  Si14  1  0.55670000  0.21830000  0.73087000  1
  Si  Si15  1  0.44330000  0.78170000  0.26913000  1
  Si  Si16  1  0.89003300  0.21830000  0.73087000  1
  Si  Si17  1  0.10996700  0.78170000  0.26913000  1
  Si  Si18  1  0.23343300  0.28128000  0.42467000  1
  Si  Si19  1  0.76656700  0.71872000  0.57533000  1
  Si  Si20  1  0.56676700  0.28128000  0.42467000  1
  Si  Si21  1  0.43323300  0.71872000  0.57533000  1
  Si  Si22  1  0.90010000  0.28128000  0.42467000  1
  Si  Si23  1  0.09990000  0.71872000  0.57533000  1
  Si  Si24  1  0.25726700  0.41605000  0.62907000  1
  Si  Si25  1  0.74273300  0.58395000  0.37093000  1
  Si  Si26  1  0.59060000  0.41605000  0.62907000  1
  Si  Si27  1  0.40940000  0.58395000  0.37093000  1
  Si  Si28  1  0.92393300  0.41605000  0.62907000  1
  Si  Si29  1  0.07606700  0.58395000  0.37093000  1
  Si  Si30  1  0.21923300  0.38693000  0.90567000  1
  Si  Si31  1  0.78076700  0.61307000  0.09433000  1
  Si  Si32  1  0.55256700  0.38693000  0.90567000  1
  Si  Si33  1  0.44743300  0.61307000  0.09433000  1
  Si  Si34  1  0.88590000  0.38693000  0.90567000  1
  Si  Si35  1  0.11410000  0.61307000  0.09433000  1
  Si  Si36  1  0.26030000  0.47539000  0.10828000  1
  Si  Si37  1  0.73970000  0.52461000  0.89172000  1
  Si  Si38  1  0.59363300  0.47539000  0.10828000  1
  Si  Si39  1  0.40636700  0.52461000  0.89172000  1
  Si  Si40  1  0.92696700  0.47539000  0.10828000  1
  Si  Si41  1  0.07303300  0.52461000  0.89172000  1
  Si  Si42  1  0.04706700  0.14569000  0.44096000  1
  Si  Si43  1  0.95293300  0.85431000  0.55904000  1
  Si  Si44  1  0.38040000  0.14569000  0.44096000  1
  Si  Si45  1  0.61960000  0.85431000  0.55904000  1
  Si  Si46  1  0.71373300  0.14569000  0.44096000  1
  Si  Si47  1  0.28626700  0.85431000  0.55904000  1
