# generated using pymatgen
data_C18NO48
_symmetry_space_group_name_H-M   'P 1'
_cell_length_a   15.00987000
_cell_length_b   12.68314000
_cell_length_c   14.71080000
_cell_angle_alpha   103.29060000
_cell_angle_beta   90.85100000
_cell_angle_gamma   100.63460000
_symmetry_Int_Tables_number   1
_chemical_formula_structural   C18NO48
_chemical_formula_sum   'C36 N2 O96'
_cell_volume   2673.90053470
_cell_formula_units_Z   2
loop_
 _symmetry_equiv_pos_site_id
 _symmetry_equiv_pos_as_xyz
  1  'x, y, z'
loop_
 _atom_site_type_symbol
 _atom_site_label
 _atom_site_symmetry_multiplicity
 _atom_site_fract_x
 _atom_site_fract_y
 _atom_site_fract_z
 _atom_site_occupancy
  C  C0  1  0.93593300  0.09260000  0.95746000  1
  C  C1  1  0.06406700  0.90740000  0.04254000  1
  C  C2  1  0.02836700  0.13540000  0.96168000  1
  C  C3  1  0.97163300  0.86460000  0.03832000  1
  C  C4  1  0.07390000  0.19120000  0.04868000  1
  C  C5  1  0.92610000  0.80880000  0.95132000  1
  C  C6  1  0.03063300  0.17640000  0.13095000  1
  C  C7  1  0.96936700  0.82360000  0.86905000  1
  C  C8  1  0.93833300  0.13130000  0.12623000  1
  C  C9  1  0.06166700  0.86870000  0.87377000  1
  C  C10  1  0.88916700  0.10180000  0.03996000  1
  C  C11  1  0.11083300  0.89820000  0.96004000  1
  C  C12  1  0.78783300  0.05543000  0.03242000  1
  C  C13  1  0.21216700  0.94457000  0.96758000  1
  C  C14  1  0.76650000  0.97739000  0.93364000  1
  C  C15  1  0.23350000  0.02261000  0.06636000  1
  C  C16  1  0.63710000  0.05475000  0.92840000  1
  C  C17  1  0.36290000  0.94525000  0.07160000  1
  C  C18  1  0.65160000  0.89610000  0.81322000  1
  C  C19  1  0.34840000  0.10390000  0.18678000  1
  C  C20  1  0.55176700  0.89455000  0.79076000  1
  C  C21  1  0.44823300  0.10545000  0.20924000  1
  C  C22  1  0.49386700  0.82940000  0.85199000  1
  C  C23  1  0.50613300  0.17060000  0.14801000  1
  C  C24  1  0.52416700  0.86920000  0.95565000  1
  C  C25  1  0.47583300  0.13080000  0.04435000  1
  C  C26  1  0.62643300  0.87929000  0.96796000  1
  C  C27  1  0.37356700  0.12071000  0.03204000  1
  C  C28  1  0.76233300  0.99242000  0.10925000  1
  C  C29  1  0.23766700  0.00758000  0.89075000  1
  C  C30  1  0.70846700  0.06256000  0.17956000  1
  C  C31  1  0.29153300  0.93744000  0.82044000  1
  C  C32  1  0.71873300  0.17435000  0.15276000  1
  C  C33  1  0.28126700  0.82565000  0.84724000  1
  C  C34  1  0.73626700  0.15239000  0.04884000  1
  C  C35  1  0.26373300  0.84761000  0.95116000  1
  N  N36  1  0.67016700  0.95163000  0.91082000  1
  N  N37  1  0.32983300  0.04837000  0.08918000  1
  O  O38  1  0.67166700  0.02709000  0.37526000  1
  O  O39  1  0.32833300  0.97291000  0.62474000  1
  O  O40  1  0.00500000  0.02709000  0.37526000  1
  O  O41  1  0.99500000  0.97291000  0.62474000  1
  O  O42  1  0.33833300  0.02709000  0.37526000  1
  O  O43  1  0.66166700  0.97291000  0.62474000  1
  O  O44  1  0.14110000  0.11893000  0.68808000  1
  O  O45  1  0.85890000  0.88107000  0.31192000  1
  O  O46  1  0.47443300  0.11893000  0.68808000  1
  O  O47  1  0.52556700  0.88107000  0.31192000  1
  O  O48  1  0.80776700  0.11893000  0.68808000  1
  O  O49  1  0.19223300  0.88107000  0.31192000  1
  O  O50  1  0.98316700  0.17283000  0.71786000  1
  O  O51  1  0.01683300  0.82717000  0.28214000  1
  O  O52  1  0.31650000  0.17283000  0.71786000  1
  O  O53  1  0.68350000  0.82717000  0.28214000  1
  O  O54  1  0.64983300  0.17283000  0.71786000  1
  O  O55  1  0.35016700  0.82717000  0.28214000  1
  O  O56  1  0.03946700  0.14020000  0.54844000  1
  O  O57  1  0.96053300  0.85980000  0.45156000  1
  O  O58  1  0.37280000  0.14020000  0.54844000  1
  O  O59  1  0.62720000  0.85980000  0.45156000  1
  O  O60  1  0.70613300  0.14020000  0.54844000  1
  O  O61  1  0.29386700  0.85980000  0.45156000  1
  O  O62  1  0.32783300  0.23820000  0.42101000  1
  O  O63  1  0.67216700  0.76180000  0.57899000  1
  O  O64  1  0.66116700  0.23820000  0.42101000  1
  O  O65  1  0.33883300  0.76180000  0.57899000  1
  O  O66  1  0.99450000  0.23820000  0.42101000  1
  O  O67  1  0.00550000  0.76180000  0.57899000  1
  O  O68  1  0.81860000  0.17885000  0.42095000  1
  O  O69  1  0.18140000  0.82115000  0.57905000  1
  O  O70  1  0.15193300  0.17885000  0.42095000  1
  O  O71  1  0.84806700  0.82115000  0.57905000  1
  O  O72  1  0.48526700  0.17885000  0.42095000  1
  O  O73  1  0.51473300  0.82115000  0.57905000  1
  O  O74  1  0.22306700  0.33465000  0.33761000  1
  O  O75  1  0.77693300  0.66535000  0.66239000  1
  O  O76  1  0.55640000  0.33465000  0.33761000  1
  O  O77  1  0.44360000  0.66535000  0.66239000  1
  O  O78  1  0.88973300  0.33465000  0.33761000  1
  O  O79  1  0.11026700  0.66535000  0.66239000  1
  O  O80  1  0.12440000  0.48216000  0.32860000  1
  O  O81  1  0.87560000  0.51784000  0.67140000  1
  O  O82  1  0.45773300  0.48216000  0.32860000  1
  O  O83  1  0.54226700  0.51784000  0.67140000  1
  O  O84  1  0.79106700  0.48216000  0.32860000  1
  O  O85  1  0.20893300  0.51784000  0.67140000  1
  O  O86  1  0.03210000  0.45699000  0.64700000  1
  O  O87  1  0.96790000  0.54301000  0.35300000  1
  O  O88  1  0.36543300  0.45699000  0.64700000  1
  O  O89  1  0.63456700  0.54301000  0.35300000  1
  O  O90  1  0.69876700  0.45699000  0.64700000  1
  O  O91  1  0.30123300  0.54301000  0.35300000  1
  O  O92  1  0.22646700  0.42109000  0.19267000  1
  O  O93  1  0.77353300  0.57891000  0.80733000  1
  O  O94  1  0.55980000  0.42109000  0.19267000  1
  O  O95  1  0.44020000  0.57891000  0.80733000  1
  O  O96  1  0.89313300  0.42109000  0.19267000  1
  O  O97  1  0.10686700  0.57891000  0.80733000  1
  O  O98  1  0.21333300  0.26465000  0.84029000  1
  O  O99  1  0.78666700  0.73535000  0.15971000  1
  O  O100  1  0.54666700  0.26465000  0.84029000  1
  O  O101  1  0.45333300  0.73535000  0.15971000  1
  O  O102  1  0.88000000  0.26465000  0.84029000  1
  O  O103  1  0.12000000  0.73535000  0.15971000  1
  O  O104  1  0.22416700  0.31605000  0.67797000  1
  O  O105  1  0.77583300  0.68395000  0.32203000  1
  O  O106  1  0.55750000  0.31605000  0.67797000  1
  O  O107  1  0.44250000  0.68395000  0.32203000  1
  O  O108  1  0.89083300  0.31605000  0.67797000  1
  O  O109  1  0.10916700  0.68395000  0.32203000  1
  O  O110  1  0.23223300  0.37403000  0.51883000  1
  O  O111  1  0.76776700  0.62597000  0.48117000  1
  O  O112  1  0.56556700  0.37403000  0.51883000  1
  O  O113  1  0.43443300  0.62597000  0.48117000  1
  O  O114  1  0.89890000  0.37403000  0.51883000  1
  O  O115  1  0.10110000  0.62597000  0.48117000  1
  O  O116  1  0.23903300  0.38286000  0.01220000  1
  O  O117  1  0.76096700  0.61714000  0.98780000  1
  O  O118  1  0.57236700  0.38286000  0.01220000  1
  O  O119  1  0.42763300  0.61714000  0.98780000  1
  O  O120  1  0.90570000  0.38286000  0.01220000  1
  O  O121  1  0.09430000  0.61714000  0.98780000  1
  O  O122  1  0.29876700  0.47490000  0.87587000  1
  O  O123  1  0.70123300  0.52510000  0.12413000  1
  O  O124  1  0.63210000  0.47490000  0.87587000  1
  O  O125  1  0.36790000  0.52510000  0.12413000  1
  O  O126  1  0.96543300  0.47490000  0.87587000  1
  O  O127  1  0.03456700  0.52510000  0.12413000  1
  O  O128  1  0.79086700  0.42526000  0.89573000  1
  O  O129  1  0.20913300  0.57474000  0.10427000  1
  O  O130  1  0.12420000  0.42526000  0.89573000  1
  O  O131  1  0.87580000  0.57474000  0.10427000  1
  O  O132  1  0.45753300  0.42526000  0.89573000  1
  O  O133  1  0.54246700  0.57474000  0.10427000  1
