# generated using pymatgen
data_O2
_symmetry_space_group_name_H-M   'P 1'
_cell_length_a   17.21500000
_cell_length_b   17.21500000
_cell_length_c   28.08200000
_cell_angle_alpha   90.00000000
_cell_angle_beta   90.00000000
_cell_angle_gamma   120.00000000
_symmetry_Int_Tables_number   1
_chemical_formula_structural   O2
_chemical_formula_sum   O192
_cell_volume   7207.30200934
_cell_formula_units_Z   96
loop_
 _symmetry_equiv_pos_site_id
 _symmetry_equiv_pos_as_xyz
  1  'x, y, z'
loop_
 _atom_site_type_symbol
 _atom_site_label
 _atom_site_symmetry_multiplicity
 _atom_site_fract_x
 _atom_site_fract_y
 _atom_site_fract_z
 _atom_site_occupancy
  O  O0  1  0.05740000  0.52870000  0.09310000  1
  O  O1  1  0.47130000  0.52870000  0.09310000  1
  O  O2  1  0.47130000  0.94260000  0.09310000  1
  O  O3  1  0.94260000  0.47130000  0.59310000  1
  O  O4  1  0.52870000  0.47130000  0.59310000  1
  O  O5  1  0.52870000  0.05740000  0.59310000  1
  O  O6  1  0.94260000  0.47130000  0.90690000  1
  O  O7  1  0.52870000  0.47130000  0.90690000  1
  O  O8  1  0.52870000  0.05740000  0.90690000  1
  O  O9  1  0.05740000  0.52870000  0.40690000  1
  O  O10  1  0.47130000  0.52870000  0.40690000  1
  O  O11  1  0.47130000  0.94260000  0.40690000  1
  O  O12  1  0.07060000  0.43100000  0.16110000  1
  O  O13  1  0.56900000  0.63960000  0.16110000  1
  O  O14  1  0.36040000  0.92940000  0.16110000  1
  O  O15  1  0.92940000  0.56900000  0.66110000  1
  O  O16  1  0.43100000  0.36040000  0.66110000  1
  O  O17  1  0.63960000  0.07060000  0.66110000  1
  O  O18  1  0.56900000  0.92940000  0.16110000  1
  O  O19  1  0.36040000  0.43100000  0.16110000  1
  O  O20  1  0.07060000  0.63960000  0.16110000  1
  O  O21  1  0.43100000  0.07060000  0.66110000  1
  O  O22  1  0.63960000  0.56900000  0.66110000  1
  O  O23  1  0.92940000  0.36040000  0.66110000  1
  O  O24  1  0.92940000  0.56900000  0.83890000  1
  O  O25  1  0.43100000  0.36040000  0.83890000  1
  O  O26  1  0.63960000  0.07060000  0.83890000  1
  O  O27  1  0.07060000  0.43100000  0.33890000  1
  O  O28  1  0.56900000  0.63960000  0.33890000  1
  O  O29  1  0.36040000  0.92940000  0.33890000  1
  O  O30  1  0.43100000  0.07060000  0.83890000  1
  O  O31  1  0.63960000  0.56900000  0.83890000  1
  O  O32  1  0.92940000  0.36040000  0.83890000  1
  O  O33  1  0.56900000  0.92940000  0.33890000  1
  O  O34  1  0.36040000  0.43100000  0.33890000  1
  O  O35  1  0.07060000  0.63960000  0.33890000  1
  O  O36  1  0.93030000  0.36100000  0.10440000  1
  O  O37  1  0.63900000  0.56930000  0.10440000  1
  O  O38  1  0.43070000  0.06970000  0.10440000  1
  O  O39  1  0.06970000  0.63900000  0.60440000  1
  O  O40  1  0.36100000  0.43070000  0.60440000  1
  O  O41  1  0.56930000  0.93030000  0.60440000  1
  O  O42  1  0.63900000  0.06970000  0.10440000  1
  O  O43  1  0.43070000  0.36100000  0.10440000  1
  O  O44  1  0.93030000  0.56930000  0.10440000  1
  O  O45  1  0.36100000  0.93030000  0.60440000  1
  O  O46  1  0.56930000  0.63900000  0.60440000  1
  O  O47  1  0.06970000  0.43070000  0.60440000  1
  O  O48  1  0.06970000  0.63900000  0.89560000  1
  O  O49  1  0.36100000  0.43070000  0.89560000  1
  O  O50  1  0.56930000  0.93030000  0.89560000  1
  O  O51  1  0.93030000  0.36100000  0.39560000  1
  O  O52  1  0.63900000  0.56930000  0.39560000  1
  O  O53  1  0.43070000  0.06970000  0.39560000  1
  O  O54  1  0.36100000  0.93030000  0.89560000  1
  O  O55  1  0.56930000  0.63900000  0.89560000  1
  O  O56  1  0.06970000  0.43070000  0.89560000  1
  O  O57  1  0.63900000  0.06970000  0.39560000  1
  O  O58  1  0.43070000  0.36100000  0.39560000  1
  O  O59  1  0.93030000  0.56930000  0.39560000  1
  O  O60  1  0.08820000  0.39780000  0.07160000  1
  O  O61  1  0.60220000  0.69040000  0.07160000  1
  O  O62  1  0.30960000  0.91180000  0.07160000  1
  O  O63  1  0.91180000  0.60220000  0.57160000  1
  O  O64  1  0.39780000  0.30960000  0.57160000  1
  O  O65  1  0.69040000  0.08820000  0.57160000  1
  O  O66  1  0.60220000  0.91180000  0.07160000  1
  O  O67  1  0.30960000  0.39780000  0.07160000  1
  O  O68  1  0.08820000  0.69040000  0.07160000  1
  O  O69  1  0.39780000  0.08820000  0.57160000  1
  O  O70  1  0.69040000  0.60220000  0.57160000  1
  O  O71  1  0.91180000  0.30960000  0.57160000  1
  O  O72  1  0.91180000  0.60220000  0.92840000  1
  O  O73  1  0.39780000  0.30960000  0.92840000  1
  O  O74  1  0.69040000  0.08820000  0.92840000  1
  O  O75  1  0.08820000  0.39780000  0.42840000  1
  O  O76  1  0.60220000  0.69040000  0.42840000  1
  O  O77  1  0.30960000  0.91180000  0.42840000  1
  O  O78  1  0.39780000  0.08820000  0.92840000  1
  O  O79  1  0.69040000  0.60220000  0.92840000  1
  O  O80  1  0.91180000  0.30960000  0.92840000  1
  O  O81  1  0.60220000  0.91180000  0.42840000  1
  O  O82  1  0.30960000  0.39780000  0.42840000  1
  O  O83  1  0.08820000  0.69040000  0.42840000  1
  O  O84  1  0.00000000  0.29140000  0.00000000  1
  O  O85  1  0.70860000  0.70860000  0.00000000  1
  O  O86  1  0.29140000  0.00000000  0.00000000  1
  O  O87  1  0.00000000  0.70860000  0.50000000  1
  O  O88  1  0.29140000  0.29140000  0.50000000  1
  O  O89  1  0.70860000  0.00000000  0.50000000  1
  O  O90  1  0.70860000  0.00000000  0.00000000  1
  O  O91  1  0.29140000  0.29140000  0.00000000  1
  O  O92  1  0.00000000  0.70860000  0.00000000  1
  O  O93  1  0.29140000  0.00000000  0.50000000  1
  O  O94  1  0.70860000  0.70860000  0.50000000  1
  O  O95  1  0.00000000  0.29140000  0.50000000  1
  O  O96  1  0.13000000  0.45600000  0.98360000  1
  O  O97  1  0.54400000  0.67400000  0.98360000  1
  O  O98  1  0.32600000  0.87000000  0.98360000  1
  O  O99  1  0.87000000  0.54400000  0.48360000  1
  O  O100  1  0.45600000  0.32600000  0.48360000  1
  O  O101  1  0.67400000  0.13000000  0.48360000  1
  O  O102  1  0.54400000  0.87000000  0.98360000  1
  O  O103  1  0.32600000  0.45600000  0.98360000  1
  O  O104  1  0.13000000  0.67400000  0.98360000  1
  O  O105  1  0.45600000  0.13000000  0.48360000  1
  O  O106  1  0.67400000  0.54400000  0.48360000  1
  O  O107  1  0.87000000  0.32600000  0.48360000  1
  O  O108  1  0.87000000  0.54400000  0.01640000  1
  O  O109  1  0.45600000  0.32600000  0.01640000  1
  O  O110  1  0.67400000  0.13000000  0.01640000  1
  O  O111  1  0.13000000  0.45600000  0.51640000  1
  O  O112  1  0.54400000  0.67400000  0.51640000  1
  O  O113  1  0.32600000  0.87000000  0.51640000  1
  O  O114  1  0.45600000  0.13000000  0.01640000  1
  O  O115  1  0.67400000  0.54400000  0.01640000  1
  O  O116  1  0.87000000  0.32600000  0.01640000  1
  O  O117  1  0.54400000  0.87000000  0.51640000  1
  O  O118  1  0.32600000  0.45600000  0.51640000  1
  O  O119  1  0.13000000  0.67400000  0.51640000  1
  O  O120  1  0.16780000  0.33560000  0.01620000  1
  O  O121  1  0.66440000  0.83220000  0.01620000  1
  O  O122  1  0.16780000  0.83220000  0.01620000  1
  O  O123  1  0.83220000  0.66440000  0.51620000  1
  O  O124  1  0.33560000  0.16780000  0.51620000  1
  O  O125  1  0.83220000  0.16780000  0.51620000  1
  O  O126  1  0.83220000  0.66440000  0.98380000  1
  O  O127  1  0.33560000  0.16780000  0.98380000  1
  O  O128  1  0.83220000  0.16780000  0.98380000  1
  O  O129  1  0.16780000  0.33560000  0.48380000  1
  O  O130  1  0.66440000  0.83220000  0.48380000  1
  O  O131  1  0.16780000  0.83220000  0.48380000  1
  O  O132  1  0.23680000  0.47360000  0.91240000  1
  O  O133  1  0.52640000  0.76320000  0.91240000  1
  O  O134  1  0.23680000  0.76320000  0.91240000  1
  O  O135  1  0.76320000  0.52640000  0.41240000  1
  O  O136  1  0.47360000  0.23680000  0.41240000  1
  O  O137  1  0.76320000  0.23680000  0.41240000  1
  O  O138  1  0.76320000  0.52640000  0.08760000  1
  O  O139  1  0.47360000  0.23680000  0.08760000  1
  O  O140  1  0.76320000  0.23680000  0.08760000  1
  O  O141  1  0.23680000  0.47360000  0.58760000  1
  O  O142  1  0.52640000  0.76320000  0.58760000  1
  O  O143  1  0.23680000  0.76320000  0.58760000  1
  O  O144  1  0.18610000  0.59310000  0.92510000  1
  O  O145  1  0.40690000  0.59300000  0.92510000  1
  O  O146  1  0.40700000  0.81390000  0.92510000  1
  O  O147  1  0.81390000  0.40690000  0.42510000  1
  O  O148  1  0.59310000  0.40700000  0.42510000  1
  O  O149  1  0.59300000  0.18610000  0.42510000  1
  O  O150  1  0.81390000  0.40690000  0.07490000  1
  O  O151  1  0.59310000  0.40700000  0.07490000  1
  O  O152  1  0.59300000  0.18610000  0.07490000  1
  O  O153  1  0.18610000  0.59310000  0.57490000  1
  O  O154  1  0.40690000  0.59300000  0.57490000  1
  O  O155  1  0.40700000  0.81390000  0.57490000  1
  O  O156  1  0.18680000  0.59340000  0.19050000  1
  O  O157  1  0.40660000  0.59340000  0.19050000  1
  O  O158  1  0.40660000  0.81320000  0.19050000  1
  O  O159  1  0.81320000  0.40660000  0.69050000  1
  O  O160  1  0.59340000  0.40660000  0.69050000  1
  O  O161  1  0.59340000  0.18680000  0.69050000  1
  O  O162  1  0.81320000  0.40660000  0.80950000  1
  O  O163  1  0.59340000  0.40660000  0.80950000  1
  O  O164  1  0.59340000  0.18680000  0.80950000  1
  O  O165  1  0.18680000  0.59340000  0.30950000  1
  O  O166  1  0.40660000  0.59340000  0.30950000  1
  O  O167  1  0.40660000  0.81320000  0.30950000  1
  O  O168  1  0.23610000  0.47230000  0.18100000  1
  O  O169  1  0.52770000  0.76380000  0.18100000  1
  O  O170  1  0.23620000  0.76390000  0.18100000  1
  O  O171  1  0.76390000  0.52770000  0.68100000  1
  O  O172  1  0.47230000  0.23620000  0.68100000  1
  O  O173  1  0.76380000  0.23610000  0.68100000  1
  O  O174  1  0.76390000  0.52770000  0.81900000  1
  O  O175  1  0.47230000  0.23620000  0.81900000  1
  O  O176  1  0.76380000  0.23610000  0.81900000  1
  O  O177  1  0.23610000  0.47230000  0.31900000  1
  O  O178  1  0.52770000  0.76380000  0.31900000  1
  O  O179  1  0.23620000  0.76390000  0.31900000  1
  O  O180  1  0.12640000  0.45760000  0.25000000  1
  O  O181  1  0.54240000  0.66880000  0.25000000  1
  O  O182  1  0.33120000  0.87360000  0.25000000  1
  O  O183  1  0.87360000  0.54240000  0.75000000  1
  O  O184  1  0.45760000  0.33120000  0.75000000  1
  O  O185  1  0.66880000  0.12640000  0.75000000  1
  O  O186  1  0.54240000  0.87360000  0.25000000  1
  O  O187  1  0.33120000  0.45760000  0.25000000  1
  O  O188  1  0.12640000  0.66880000  0.25000000  1
  O  O189  1  0.45760000  0.12640000  0.75000000  1
  O  O190  1  0.66880000  0.54240000  0.75000000  1
  O  O191  1  0.87360000  0.33120000  0.75000000  1
