# generated using pymatgen
data_Si
_symmetry_space_group_name_H-M   'P 1'
_cell_length_a   17.21500000
_cell_length_b   17.21500000
_cell_length_c   28.08200000
_cell_angle_alpha   90.00000000
_cell_angle_beta   90.00000000
_cell_angle_gamma   120.00000000
_symmetry_Int_Tables_number   1
_chemical_formula_structural   Si
_chemical_formula_sum   Si96
_cell_volume   7207.30200934
_cell_formula_units_Z   96
loop_
 _symmetry_equiv_pos_site_id
 _symmetry_equiv_pos_as_xyz
  1  'x, y, z'
loop_
 _atom_site_type_symbol
 _atom_site_label
 _atom_site_symmetry_multiplicity
 _atom_site_fract_x
 _atom_site_fract_y
 _atom_site_fract_z
 _atom_site_occupancy
  Si  Si0  1  0.03660000  0.42960000  0.10750000  1
  Si  Si1  1  0.57040000  0.60700000  0.10750000  1
  Si  Si2  1  0.39300000  0.96340000  0.10750000  1
  Si  Si3  1  0.96340000  0.57040000  0.60750000  1
  Si  Si4  1  0.42960000  0.39300000  0.60750000  1
  Si  Si5  1  0.60700000  0.03660000  0.60750000  1
  Si  Si6  1  0.57040000  0.96340000  0.10750000  1
  Si  Si7  1  0.39300000  0.42960000  0.10750000  1
  Si  Si8  1  0.03660000  0.60700000  0.10750000  1
  Si  Si9  1  0.42960000  0.03660000  0.60750000  1
  Si  Si10  1  0.60700000  0.57040000  0.60750000  1
  Si  Si11  1  0.96340000  0.39300000  0.60750000  1
  Si  Si12  1  0.96340000  0.57040000  0.89250000  1
  Si  Si13  1  0.42960000  0.39300000  0.89250000  1
  Si  Si14  1  0.60700000  0.03660000  0.89250000  1
  Si  Si15  1  0.03660000  0.42960000  0.39250000  1
  Si  Si16  1  0.57040000  0.60700000  0.39250000  1
  Si  Si17  1  0.39300000  0.96340000  0.39250000  1
  Si  Si18  1  0.42960000  0.03660000  0.89250000  1
  Si  Si19  1  0.60700000  0.57040000  0.89250000  1
  Si  Si20  1  0.96340000  0.39300000  0.89250000  1
  Si  Si21  1  0.57040000  0.96340000  0.39250000  1
  Si  Si22  1  0.39300000  0.42960000  0.39250000  1
  Si  Si23  1  0.03660000  0.60700000  0.39250000  1
  Si  Si24  1  0.09640000  0.37010000  0.01790000  1
  Si  Si25  1  0.62990000  0.72630000  0.01790000  1
  Si  Si26  1  0.27370000  0.90360000  0.01790000  1
  Si  Si27  1  0.90360000  0.62990000  0.51790000  1
  Si  Si28  1  0.37010000  0.27370000  0.51790000  1
  Si  Si29  1  0.72630000  0.09640000  0.51790000  1
  Si  Si30  1  0.62990000  0.90360000  0.01790000  1
  Si  Si31  1  0.27370000  0.37010000  0.01790000  1
  Si  Si32  1  0.09640000  0.72630000  0.01790000  1
  Si  Si33  1  0.37010000  0.09640000  0.51790000  1
  Si  Si34  1  0.72630000  0.62990000  0.51790000  1
  Si  Si35  1  0.90360000  0.27370000  0.51790000  1
  Si  Si36  1  0.90360000  0.62990000  0.98210000  1
  Si  Si37  1  0.37010000  0.27370000  0.98210000  1
  Si  Si38  1  0.72630000  0.09640000  0.98210000  1
  Si  Si39  1  0.09640000  0.37010000  0.48210000  1
  Si  Si40  1  0.62990000  0.72630000  0.48210000  1
  Si  Si41  1  0.27370000  0.90360000  0.48210000  1
  Si  Si42  1  0.37010000  0.09640000  0.98210000  1
  Si  Si43  1  0.72630000  0.62990000  0.98210000  1
  Si  Si44  1  0.90360000  0.27370000  0.98210000  1
  Si  Si45  1  0.62990000  0.90360000  0.48210000  1
  Si  Si46  1  0.27370000  0.37010000  0.48210000  1
  Si  Si47  1  0.09640000  0.72630000  0.48210000  1
  Si  Si48  1  0.15560000  0.48840000  0.92920000  1
  Si  Si49  1  0.51160000  0.66720000  0.92920000  1
  Si  Si50  1  0.33280000  0.84440000  0.92920000  1
  Si  Si51  1  0.84440000  0.51160000  0.42920000  1
  Si  Si52  1  0.48840000  0.33280000  0.42920000  1
  Si  Si53  1  0.66720000  0.15560000  0.42920000  1
  Si  Si54  1  0.51160000  0.84440000  0.92920000  1
  Si  Si55  1  0.33280000  0.48840000  0.92920000  1
  Si  Si56  1  0.15560000  0.66720000  0.92920000  1
  Si  Si57  1  0.48840000  0.15560000  0.42920000  1
  Si  Si58  1  0.66720000  0.51160000  0.42920000  1
  Si  Si59  1  0.84440000  0.33280000  0.42920000  1
  Si  Si60  1  0.84440000  0.51160000  0.07080000  1
  Si  Si61  1  0.48840000  0.33280000  0.07080000  1
  Si  Si62  1  0.66720000  0.15560000  0.07080000  1
  Si  Si63  1  0.15560000  0.48840000  0.57080000  1
  Si  Si64  1  0.51160000  0.66720000  0.57080000  1
  Si  Si65  1  0.33280000  0.84440000  0.57080000  1
  Si  Si66  1  0.48840000  0.15560000  0.07080000  1
  Si  Si67  1  0.66720000  0.51160000  0.07080000  1
  Si  Si68  1  0.84440000  0.33280000  0.07080000  1
  Si  Si69  1  0.51160000  0.84440000  0.57080000  1
  Si  Si70  1  0.33280000  0.48840000  0.57080000  1
  Si  Si71  1  0.15560000  0.66720000  0.57080000  1
  Si  Si72  1  0.15500000  0.48850000  0.19570000  1
  Si  Si73  1  0.51150000  0.66650000  0.19570000  1
  Si  Si74  1  0.33350000  0.84500000  0.19570000  1
  Si  Si75  1  0.84500000  0.51150000  0.69570000  1
  Si  Si76  1  0.48850000  0.33350000  0.69570000  1
  Si  Si77  1  0.66650000  0.15500000  0.69570000  1
  Si  Si78  1  0.51150000  0.84500000  0.19570000  1
  Si  Si79  1  0.33350000  0.48850000  0.19570000  1
  Si  Si80  1  0.15500000  0.66650000  0.19570000  1
  Si  Si81  1  0.48850000  0.15500000  0.69570000  1
  Si  Si82  1  0.66650000  0.51150000  0.69570000  1
  Si  Si83  1  0.84500000  0.33350000  0.69570000  1
  Si  Si84  1  0.84500000  0.51150000  0.80430000  1
  Si  Si85  1  0.48850000  0.33350000  0.80430000  1
  Si  Si86  1  0.66650000  0.15500000  0.80430000  1
  Si  Si87  1  0.15500000  0.48850000  0.30430000  1
  Si  Si88  1  0.51150000  0.66650000  0.30430000  1
  Si  Si89  1  0.33350000  0.84500000  0.30430000  1
  Si  Si90  1  0.48850000  0.15500000  0.80430000  1
  Si  Si91  1  0.66650000  0.51150000  0.80430000  1
  Si  Si92  1  0.84500000  0.33350000  0.80430000  1
  Si  Si93  1  0.51150000  0.84500000  0.30430000  1
  Si  Si94  1  0.33350000  0.48850000  0.30430000  1
  Si  Si95  1  0.15500000  0.66650000  0.30430000  1
