# generated using pymatgen
data_SiO4
_symmetry_space_group_name_H-M   'P 1'
_cell_length_a   17.21500000
_cell_length_b   17.21500000
_cell_length_c   28.08200000
_cell_angle_alpha   90.00000000
_cell_angle_beta   90.00000000
_cell_angle_gamma   120.00000000
_symmetry_Int_Tables_number   1
_chemical_formula_structural   SiO4
_chemical_formula_sum   'Si1 O4'
_cell_volume   7207.30200934
_cell_formula_units_Z   1
loop_
 _symmetry_equiv_pos_site_id
 _symmetry_equiv_pos_as_xyz
  1  'x, y, z'
loop_
 _atom_site_type_symbol
 _atom_site_label
 _atom_site_symmetry_multiplicity
 _atom_site_fract_x
 _atom_site_fract_y
 _atom_site_fract_z
 _atom_site_occupancy
  Si  Si0  1  0.48850000  0.33350000  0.80430000  1
  O  O1  1  0.43100000  0.36040000  0.83890000  1
  O  O2  1  0.59340000  0.40660000  0.80950000  1
  O  O3  1  0.47230000  0.23620000  0.81900000  1
  O  O4  1  0.45760000  0.33120000  0.75000000  1
