# generated using pymatgen
data_O2
_symmetry_space_group_name_H-M   'P 1'
_cell_length_a   8.25700000
_cell_length_b   14.56200000
_cell_length_c   20.31400000
_cell_angle_alpha   90.00000000
_cell_angle_beta   90.00000000
_cell_angle_gamma   90.00000000
_symmetry_Int_Tables_number   1
_chemical_formula_structural   O2
_chemical_formula_sum   O96
_cell_volume   2442.52354828
_cell_formula_units_Z   48
loop_
 _symmetry_equiv_pos_site_id
 _symmetry_equiv_pos_as_xyz
  1  'x, y, z'
loop_
 _atom_site_type_symbol
 _atom_site_label
 _atom_site_symmetry_multiplicity
 _atom_site_fract_x
 _atom_site_fract_y
 _atom_site_fract_z
 _atom_site_occupancy
  O  O0  1  0.50000000  0.75000000  0.01190000  1
  O  O1  1  0.00000000  0.25000000  0.51190000  1
  O  O2  1  0.50000000  0.25000000  0.98810000  1
  O  O3  1  0.00000000  0.75000000  0.48810000  1
  O  O4  1  0.00000000  0.75000000  0.15020000  1
  O  O5  1  0.50000000  0.25000000  0.65020000  1
  O  O6  1  0.00000000  0.25000000  0.84980000  1
  O  O7  1  0.50000000  0.75000000  0.34980000  1
  O  O8  1  0.50000000  0.96740000  0.16980000  1
  O  O9  1  0.00000000  0.46740000  0.66980000  1
  O  O10  1  0.50000000  0.53260000  0.16980000  1
  O  O11  1  0.00000000  0.03260000  0.66980000  1
  O  O12  1  0.50000000  0.46740000  0.83020000  1
  O  O13  1  0.00000000  0.96740000  0.33020000  1
  O  O14  1  0.50000000  0.03260000  0.83020000  1
  O  O15  1  0.00000000  0.53260000  0.33020000  1
  O  O16  1  0.00000000  0.91330000  0.95390000  1
  O  O17  1  0.50000000  0.41330000  0.45390000  1
  O  O18  1  0.00000000  0.58670000  0.95390000  1
  O  O19  1  0.50000000  0.08670000  0.45390000  1
  O  O20  1  0.00000000  0.41330000  0.04610000  1
  O  O21  1  0.50000000  0.91330000  0.54610000  1
  O  O22  1  0.00000000  0.08670000  0.04610000  1
  O  O23  1  0.50000000  0.58670000  0.54610000  1
  O  O24  1  0.19420000  0.75000000  0.04760000  1
  O  O25  1  0.69420000  0.25000000  0.54760000  1
  O  O26  1  0.80580000  0.75000000  0.04760000  1
  O  O27  1  0.30580000  0.25000000  0.54760000  1
  O  O28  1  0.80580000  0.25000000  0.95240000  1
  O  O29  1  0.30580000  0.75000000  0.45240000  1
  O  O30  1  0.19420000  0.25000000  0.95240000  1
  O  O31  1  0.69420000  0.75000000  0.45240000  1
  O  O32  1  0.27650000  0.84000000  0.15460000  1
  O  O33  1  0.77650000  0.34000000  0.65460000  1
  O  O34  1  0.72350000  0.66000000  0.15460000  1
  O  O35  1  0.22350000  0.16000000  0.65460000  1
  O  O36  1  0.72350000  0.34000000  0.84540000  1
  O  O37  1  0.22350000  0.84000000  0.34540000  1
  O  O38  1  0.27650000  0.16000000  0.84540000  1
  O  O39  1  0.77650000  0.66000000  0.34540000  1
  O  O40  1  0.72350000  0.16000000  0.84540000  1
  O  O41  1  0.22350000  0.66000000  0.34540000  1
  O  O42  1  0.27650000  0.34000000  0.84540000  1
  O  O43  1  0.77650000  0.84000000  0.34540000  1
  O  O44  1  0.27650000  0.66000000  0.15460000  1
  O  O45  1  0.77650000  0.16000000  0.65460000  1
  O  O46  1  0.72350000  0.84000000  0.15460000  1
  O  O47  1  0.22350000  0.34000000  0.65460000  1
  O  O48  1  0.25000000  0.96150000  0.25000000  1
  O  O49  1  0.75000000  0.46150000  0.75000000  1
  O  O50  1  0.75000000  0.53850000  0.25000000  1
  O  O51  1  0.25000000  0.03850000  0.75000000  1
  O  O52  1  0.75000000  0.03850000  0.75000000  1
  O  O53  1  0.25000000  0.53850000  0.25000000  1
  O  O54  1  0.25000000  0.46150000  0.75000000  1
  O  O55  1  0.75000000  0.96150000  0.25000000  1
  O  O56  1  0.21020000  0.01260000  0.12790000  1
  O  O57  1  0.71020000  0.51260000  0.62790000  1
  O  O58  1  0.78980000  0.48740000  0.12790000  1
  O  O59  1  0.28980000  0.98740000  0.62790000  1
  O  O60  1  0.78980000  0.51260000  0.87210000  1
  O  O61  1  0.28980000  0.01260000  0.37210000  1
  O  O62  1  0.21020000  0.98740000  0.87210000  1
  O  O63  1  0.71020000  0.48740000  0.37210000  1
  O  O64  1  0.78980000  0.98740000  0.87210000  1
  O  O65  1  0.28980000  0.48740000  0.37210000  1
  O  O66  1  0.21020000  0.51260000  0.87210000  1
  O  O67  1  0.71020000  0.01260000  0.37210000  1
  O  O68  1  0.21020000  0.48740000  0.12790000  1
  O  O69  1  0.71020000  0.98740000  0.62790000  1
  O  O70  1  0.78980000  0.01260000  0.12790000  1
  O  O71  1  0.28980000  0.51260000  0.62790000  1
  O  O72  1  0.25430000  0.00000000  0.00000000  1
  O  O73  1  0.75430000  0.50000000  0.50000000  1
  O  O74  1  0.74570000  0.50000000  0.00000000  1
  O  O75  1  0.24570000  0.00000000  0.50000000  1
  O  O76  1  0.74570000  0.00000000  0.00000000  1
  O  O77  1  0.24570000  0.50000000  0.50000000  1
  O  O78  1  0.25430000  0.50000000  0.00000000  1
  O  O79  1  0.75430000  0.00000000  0.50000000  1
  O  O80  1  0.28750000  0.84020000  0.94140000  1
  O  O81  1  0.78750000  0.34020000  0.44140000  1
  O  O82  1  0.71250000  0.65980000  0.94140000  1
  O  O83  1  0.21250000  0.15980000  0.44140000  1
  O  O84  1  0.71250000  0.34020000  0.05860000  1
  O  O85  1  0.21250000  0.84020000  0.55860000  1
  O  O86  1  0.28750000  0.15980000  0.05860000  1
  O  O87  1  0.78750000  0.65980000  0.55860000  1
  O  O88  1  0.71250000  0.15980000  0.05860000  1
  O  O89  1  0.21250000  0.65980000  0.55860000  1
  O  O90  1  0.28750000  0.34020000  0.05860000  1
  O  O91  1  0.78750000  0.84020000  0.55860000  1
  O  O92  1  0.28750000  0.65980000  0.94140000  1
  O  O93  1  0.78750000  0.15980000  0.44140000  1
  O  O94  1  0.71250000  0.84020000  0.94140000  1
  O  O95  1  0.21250000  0.34020000  0.44140000  1
