# generated using pymatgen
data_SiO4
_symmetry_space_group_name_H-M   'P 1'
_cell_length_a   8.25700000
_cell_length_b   14.56200000
_cell_length_c   20.31400000
_cell_angle_alpha   90.00000000
_cell_angle_beta   90.00000000
_cell_angle_gamma   90.00000000
_symmetry_Int_Tables_number   1
_chemical_formula_structural   SiO4
_chemical_formula_sum   'Si1 O4'
_cell_volume   2442.52354828
_cell_formula_units_Z   1
loop_
 _symmetry_equiv_pos_site_id
 _symmetry_equiv_pos_as_xyz
  1  'x, y, z'
loop_
 _atom_site_type_symbol
 _atom_site_label
 _atom_site_symmetry_multiplicity
 _atom_site_fract_x
 _atom_site_fract_y
 _atom_site_fract_z
 _atom_site_occupancy
  Si  Si0  1  0.30980000  0.05520000  0.82440000  1
  O  O1  1  0.50000000  0.03260000  0.83020000  1
  O  O2  1  0.27650000  0.16000000  0.84540000  1
  O  O3  1  0.25000000  0.03850000  0.75000000  1
  O  O4  1  0.21020000  -0.01260000  0.87210000  1
