# generated using pymatgen
data_SiO4
_symmetry_space_group_name_H-M   'P 1'
_cell_length_a   8.25700000
_cell_length_b   14.56200000
_cell_length_c   20.31400000
_cell_angle_alpha   90.00000000
_cell_angle_beta   90.00000000
_cell_angle_gamma   90.00000000
_symmetry_Int_Tables_number   1
_chemical_formula_structural   SiO4
_chemical_formula_sum   'Si1 O4'
_cell_volume   2442.52354828
_cell_formula_units_Z   1
loop_
 _symmetry_equiv_pos_site_id
 _symmetry_equiv_pos_as_xyz
  1  'x, y, z'
loop_
 _atom_site_type_symbol
 _atom_site_label
 _atom_site_symmetry_multiplicity
 _atom_site_fract_x
 _atom_site_fract_y
 _atom_site_fract_z
 _atom_site_occupancy
  Si  Si0  1  0.18840000  0.56450000  0.94140000  1
  O  O1  1  0.00000000  0.58670000  0.95390000  1
  O  O2  1  0.21020000  0.51260000  0.87210000  1
  O  O3  1  0.25430000  0.50000000  1.00000000  1
  O  O4  1  0.28750000  0.65980000  0.94140000  1
