# generated using pymatgen
data_O2
_symmetry_space_group_name_H-M   'P 1'
_cell_length_a   26.03578000
_cell_length_b   25.58951000
_cell_length_c   15.82481000
_cell_angle_alpha   90.00000000
_cell_angle_beta   90.00000000
_cell_angle_gamma   90.00000000
_symmetry_Int_Tables_number   1
_chemical_formula_structural   O2
_chemical_formula_sum   O260
_cell_volume   10543.16655733
_cell_formula_units_Z   130
loop_
 _symmetry_equiv_pos_site_id
 _symmetry_equiv_pos_as_xyz
  1  'x, y, z'
loop_
 _atom_site_type_symbol
 _atom_site_label
 _atom_site_symmetry_multiplicity
 _atom_site_fract_x
 _atom_site_fract_y
 _atom_site_fract_z
 _atom_site_occupancy
  O  O0  1  0.40356000  0.23980000  0.15637000  1
  O  O1  1  0.40356000  0.76020000  0.84363000  1
  O  O2  1  0.59644000  0.23980000  0.84363000  1
  O  O3  1  0.59644000  0.76020000  0.15637000  1
  O  O4  1  0.59644000  0.76020000  0.84363000  1
  O  O5  1  0.59644000  0.23980000  0.15637000  1
  O  O6  1  0.40356000  0.76020000  0.15637000  1
  O  O7  1  0.40356000  0.23980000  0.84363000  1
  O  O8  1  0.90356000  0.73980000  0.65637000  1
  O  O9  1  0.90356000  0.26020000  0.34363000  1
  O  O10  1  0.09644000  0.73980000  0.34363000  1
  O  O11  1  0.09644000  0.26020000  0.65637000  1
  O  O12  1  0.09644000  0.26020000  0.34363000  1
  O  O13  1  0.09644000  0.73980000  0.65637000  1
  O  O14  1  0.90356000  0.26020000  0.65637000  1
  O  O15  1  0.90356000  0.73980000  0.34363000  1
  O  O16  1  0.24700000  0.18713000  0.00000000  1
  O  O17  1  0.24700000  0.81287000  0.00000000  1
  O  O18  1  0.75300000  0.18713000  0.00000000  1
  O  O19  1  0.75300000  0.81287000  0.00000000  1
  O  O20  1  0.74700000  0.68713000  0.50000000  1
  O  O21  1  0.74700000  0.31287000  0.50000000  1
  O  O22  1  0.25300000  0.68713000  0.50000000  1
  O  O23  1  0.25300000  0.31287000  0.50000000  1
  O  O24  1  0.24073000  0.00000000  0.50000000  1
  O  O25  1  0.75927000  0.00000000  0.50000000  1
  O  O26  1  0.74073000  0.50000000  0.00000000  1
  O  O27  1  0.25927000  0.50000000  0.00000000  1
  O  O28  1  0.43433000  0.25536000  0.00000000  1
  O  O29  1  0.43433000  0.74464000  0.00000000  1
  O  O30  1  0.56567000  0.25536000  0.00000000  1
  O  O31  1  0.56567000  0.74464000  0.00000000  1
  O  O32  1  0.93433000  0.75536000  0.50000000  1
  O  O33  1  0.93433000  0.24464000  0.50000000  1
  O  O34  1  0.06567000  0.75536000  0.50000000  1
  O  O35  1  0.06567000  0.24464000  0.50000000  1
  O  O36  1  0.00000000  0.09556000  0.37594000  1
  O  O37  1  0.00000000  0.90444000  0.62406000  1
  O  O38  1  0.00000000  0.09556000  0.62406000  1
  O  O39  1  0.00000000  0.90444000  0.37594000  1
  O  O40  1  0.50000000  0.59556000  0.87594000  1
  O  O41  1  0.50000000  0.40444000  0.12406000  1
  O  O42  1  0.50000000  0.59556000  0.12406000  1
  O  O43  1  0.50000000  0.40444000  0.87594000  1
  O  O44  1  0.16323000  0.34726000  0.08327000  1
  O  O45  1  0.16323000  0.65274000  0.91673000  1
  O  O46  1  0.83677000  0.34726000  0.91673000  1
  O  O47  1  0.83677000  0.65274000  0.08327000  1
  O  O48  1  0.83677000  0.65274000  0.91673000  1
  O  O49  1  0.83677000  0.34726000  0.08327000  1
  O  O50  1  0.16323000  0.65274000  0.08327000  1
  O  O51  1  0.16323000  0.34726000  0.91673000  1
  O  O52  1  0.66323000  0.84726000  0.58327000  1
  O  O53  1  0.66323000  0.15274000  0.41673000  1
  O  O54  1  0.33677000  0.84726000  0.41673000  1
  O  O55  1  0.33677000  0.15274000  0.58327000  1
  O  O56  1  0.33677000  0.15274000  0.41673000  1
  O  O57  1  0.33677000  0.84726000  0.58327000  1
  O  O58  1  0.66323000  0.15274000  0.58327000  1
  O  O59  1  0.66323000  0.84726000  0.41673000  1
  O  O60  1  0.18575000  0.06928000  0.41708000  1
  O  O61  1  0.18575000  0.93072000  0.58292000  1
  O  O62  1  0.81425000  0.06928000  0.58292000  1
  O  O63  1  0.81425000  0.93072000  0.41708000  1
  O  O64  1  0.81425000  0.93072000  0.58292000  1
  O  O65  1  0.81425000  0.06928000  0.41708000  1
  O  O66  1  0.18575000  0.93072000  0.41708000  1
  O  O67  1  0.18575000  0.06928000  0.58292000  1
  O  O68  1  0.68575000  0.56928000  0.91708000  1
  O  O69  1  0.68575000  0.43072000  0.08292000  1
  O  O70  1  0.31425000  0.56928000  0.08292000  1
  O  O71  1  0.31425000  0.43072000  0.91708000  1
  O  O72  1  0.31425000  0.43072000  0.08292000  1
  O  O73  1  0.31425000  0.56928000  0.91708000  1
  O  O74  1  0.68575000  0.43072000  0.91708000  1
  O  O75  1  0.68575000  0.56928000  0.08292000  1
  O  O76  1  0.09612000  0.07127000  0.34260000  1
  O  O77  1  0.09612000  0.92873000  0.65740000  1
  O  O78  1  0.90388000  0.07127000  0.65740000  1
  O  O79  1  0.90388000  0.92873000  0.34260000  1
  O  O80  1  0.90388000  0.92873000  0.65740000  1
  O  O81  1  0.90388000  0.07127000  0.34260000  1
  O  O82  1  0.09612000  0.92873000  0.34260000  1
  O  O83  1  0.09612000  0.07127000  0.65740000  1
  O  O84  1  0.59612000  0.57127000  0.84260000  1
  O  O85  1  0.59612000  0.42873000  0.15740000  1
  O  O86  1  0.40388000  0.57127000  0.15740000  1
  O  O87  1  0.40388000  0.42873000  0.84260000  1
  O  O88  1  0.40388000  0.42873000  0.15740000  1
  O  O89  1  0.40388000  0.57127000  0.84260000  1
  O  O90  1  0.59612000  0.42873000  0.84260000  1
  O  O91  1  0.59612000  0.57127000  0.15740000  1
  O  O92  1  0.17960000  0.09907000  0.25948000  1
  O  O93  1  0.17960000  0.90093000  0.74052000  1
  O  O94  1  0.82040000  0.09907000  0.74052000  1
  O  O95  1  0.82040000  0.90093000  0.25948000  1
  O  O96  1  0.82040000  0.90093000  0.74052000  1
  O  O97  1  0.82040000  0.09907000  0.25948000  1
  O  O98  1  0.17960000  0.90093000  0.25948000  1
  O  O99  1  0.17960000  0.09907000  0.74052000  1
  O  O100  1  0.67960000  0.59907000  0.75948000  1
  O  O101  1  0.67960000  0.40093000  0.24052000  1
  O  O102  1  0.32040000  0.59907000  0.24052000  1
  O  O103  1  0.32040000  0.40093000  0.75948000  1
  O  O104  1  0.32040000  0.40093000  0.24052000  1
  O  O105  1  0.32040000  0.59907000  0.75948000  1
  O  O106  1  0.67960000  0.40093000  0.75948000  1
  O  O107  1  0.67960000  0.59907000  0.24052000  1
  O  O108  1  0.23027000  0.16323000  0.15986000  1
  O  O109  1  0.23027000  0.83677000  0.84014000  1
  O  O110  1  0.76973000  0.16323000  0.84014000  1
  O  O111  1  0.76973000  0.83677000  0.15986000  1
  O  O112  1  0.76973000  0.83677000  0.84014000  1
  O  O113  1  0.76973000  0.16323000  0.15986000  1
  O  O114  1  0.23027000  0.83677000  0.15986000  1
  O  O115  1  0.23027000  0.16323000  0.84014000  1
  O  O116  1  0.73027000  0.66323000  0.65986000  1
  O  O117  1  0.73027000  0.33677000  0.34014000  1
  O  O118  1  0.26973000  0.66323000  0.34014000  1
  O  O119  1  0.26973000  0.33677000  0.65986000  1
  O  O120  1  0.26973000  0.33677000  0.34014000  1
  O  O121  1  0.26973000  0.66323000  0.65986000  1
  O  O122  1  0.73027000  0.33677000  0.65986000  1
  O  O123  1  0.73027000  0.66323000  0.34014000  1
  O  O124  1  0.30627000  0.22605000  0.11870000  1
  O  O125  1  0.30627000  0.77395000  0.88130000  1
  O  O126  1  0.69373000  0.22605000  0.88130000  1
  O  O127  1  0.69373000  0.77395000  0.11870000  1
  O  O128  1  0.69373000  0.77395000  0.88130000  1
  O  O129  1  0.69373000  0.22605000  0.11870000  1
  O  O130  1  0.30627000  0.77395000  0.11870000  1
  O  O131  1  0.30627000  0.22605000  0.88130000  1
  O  O132  1  0.80627000  0.72605000  0.61870000  1
  O  O133  1  0.80627000  0.27395000  0.38130000  1
  O  O134  1  0.19373000  0.72605000  0.38130000  1
  O  O135  1  0.19373000  0.27395000  0.61870000  1
  O  O136  1  0.19373000  0.27395000  0.38130000  1
  O  O137  1  0.19373000  0.72605000  0.61870000  1
  O  O138  1  0.80627000  0.27395000  0.61870000  1
  O  O139  1  0.80627000  0.72605000  0.38130000  1
  O  O140  1  0.21074000  0.25788000  0.10402000  1
  O  O141  1  0.21074000  0.74212000  0.89598000  1
  O  O142  1  0.78926000  0.25788000  0.89598000  1
  O  O143  1  0.78926000  0.74212000  0.10402000  1
  O  O144  1  0.78926000  0.74212000  0.89598000  1
  O  O145  1  0.78926000  0.25788000  0.10402000  1
  O  O146  1  0.21074000  0.74212000  0.10402000  1
  O  O147  1  0.21074000  0.25788000  0.89598000  1
  O  O148  1  0.71074000  0.75788000  0.60402000  1
  O  O149  1  0.71074000  0.24212000  0.39598000  1
  O  O150  1  0.28926000  0.75788000  0.39598000  1
  O  O151  1  0.28926000  0.24212000  0.60402000  1
  O  O152  1  0.28926000  0.24212000  0.39598000  1
  O  O153  1  0.28926000  0.75788000  0.60402000  1
  O  O154  1  0.71074000  0.24212000  0.60402000  1
  O  O155  1  0.71074000  0.75788000  0.39598000  1
  O  O156  1  0.06664000  0.08665000  0.50000000  1
  O  O157  1  0.06664000  0.91335000  0.50000000  1
  O  O158  1  0.93336000  0.08665000  0.50000000  1
  O  O159  1  0.93336000  0.91335000  0.50000000  1
  O  O160  1  0.56664000  0.58665000  0.00000000  1
  O  O161  1  0.56664000  0.41335000  0.00000000  1
  O  O162  1  0.43336000  0.58665000  0.00000000  1
  O  O163  1  0.43336000  0.41335000  0.00000000  1
  O  O164  1  0.50000000  0.26439000  0.12537000  1
  O  O165  1  0.50000000  0.73561000  0.87463000  1
  O  O166  1  0.50000000  0.26439000  0.87463000  1
  O  O167  1  0.50000000  0.73561000  0.12537000  1
  O  O168  1  0.00000000  0.76439000  0.62537000  1
  O  O169  1  0.00000000  0.23561000  0.37463000  1
  O  O170  1  0.00000000  0.76439000  0.37463000  1
  O  O171  1  0.00000000  0.23561000  0.62537000  1
  O  O172  1  0.26777000  0.09934000  0.50000000  1
  O  O173  1  0.26777000  0.90066000  0.50000000  1
  O  O174  1  0.73223000  0.09934000  0.50000000  1
  O  O175  1  0.73223000  0.90066000  0.50000000  1
  O  O176  1  0.76777000  0.59934000  0.00000000  1
  O  O177  1  0.76777000  0.40066000  0.00000000  1
  O  O178  1  0.23223000  0.59934000  0.00000000  1
  O  O179  1  0.23223000  0.40066000  0.00000000  1
  O  O180  1  0.42697000  0.33435000  0.10543000  1
  O  O181  1  0.42697000  0.66565000  0.89457000  1
  O  O182  1  0.57303000  0.33435000  0.89457000  1
  O  O183  1  0.57303000  0.66565000  0.10543000  1
  O  O184  1  0.57303000  0.66565000  0.89457000  1
  O  O185  1  0.57303000  0.33435000  0.10543000  1
  O  O186  1  0.42697000  0.66565000  0.10543000  1
  O  O187  1  0.42697000  0.33435000  0.89457000  1
  O  O188  1  0.92697000  0.83435000  0.60543000  1
  O  O189  1  0.92697000  0.16565000  0.39457000  1
  O  O190  1  0.07303000  0.83435000  0.39457000  1
  O  O191  1  0.07303000  0.16565000  0.60543000  1
  O  O192  1  0.07303000  0.16565000  0.39457000  1
  O  O193  1  0.07303000  0.83435000  0.60543000  1
  O  O194  1  0.92697000  0.16565000  0.60543000  1
  O  O195  1  0.92697000  0.83435000  0.39457000  1
  O  O196  1  0.25401000  0.15758000  0.32108000  1
  O  O197  1  0.25401000  0.84242000  0.67892000  1
  O  O198  1  0.74599000  0.15758000  0.67892000  1
  O  O199  1  0.74599000  0.84242000  0.32108000  1
  O  O200  1  0.74599000  0.84242000  0.67892000  1
  O  O201  1  0.74599000  0.15758000  0.32108000  1
  O  O202  1  0.25401000  0.84242000  0.32108000  1
  O  O203  1  0.25401000  0.15758000  0.67892000  1
  O  O204  1  0.75401000  0.65758000  0.82108000  1
  O  O205  1  0.75401000  0.34242000  0.17892000  1
  O  O206  1  0.24599000  0.65758000  0.17892000  1
  O  O207  1  0.24599000  0.34242000  0.82108000  1
  O  O208  1  0.24599000  0.34242000  0.17892000  1
  O  O209  1  0.24599000  0.65758000  0.82108000  1
  O  O210  1  0.75401000  0.34242000  0.82108000  1
  O  O211  1  0.75401000  0.65758000  0.17892000  1
  O  O212  1  0.16418000  0.00000000  0.29937000  1
  O  O213  1  0.16418000  0.00000000  0.70063000  1
  O  O214  1  0.83582000  0.00000000  0.70063000  1
  O  O215  1  0.83582000  0.00000000  0.29937000  1
  O  O216  1  0.66418000  0.50000000  0.79937000  1
  O  O217  1  0.66418000  0.50000000  0.20063000  1
  O  O218  1  0.33582000  0.50000000  0.20063000  1
  O  O219  1  0.33582000  0.50000000  0.79937000  1
  O  O220  1  0.15975000  0.29936000  0.23039000  1
  O  O221  1  0.15975000  0.70064000  0.76961000  1
  O  O222  1  0.84025000  0.29936000  0.76961000  1
  O  O223  1  0.84025000  0.70064000  0.23039000  1
  O  O224  1  0.84025000  0.70064000  0.76961000  1
  O  O225  1  0.84025000  0.29936000  0.23039000  1
  O  O226  1  0.15975000  0.70064000  0.23039000  1
  O  O227  1  0.15975000  0.29936000  0.76961000  1
  O  O228  1  0.65975000  0.79936000  0.73039000  1
  O  O229  1  0.65975000  0.20064000  0.26961000  1
  O  O230  1  0.34025000  0.79936000  0.26961000  1
  O  O231  1  0.34025000  0.20064000  0.73039000  1
  O  O232  1  0.34025000  0.20064000  0.26961000  1
  O  O233  1  0.34025000  0.79936000  0.73039000  1
  O  O234  1  0.65975000  0.20064000  0.73039000  1
  O  O235  1  0.65975000  0.79936000  0.26961000  1
  O  O236  1  0.13593000  0.43214000  0.00000000  1
  O  O237  1  0.13593000  0.56786000  0.00000000  1
  O  O238  1  0.86407000  0.43214000  0.00000000  1
  O  O239  1  0.86407000  0.56786000  0.00000000  1
  O  O240  1  0.63593000  0.93214000  0.50000000  1
  O  O241  1  0.63593000  0.06786000  0.50000000  1
  O  O242  1  0.36407000  0.93214000  0.50000000  1
  O  O243  1  0.36407000  0.06786000  0.50000000  1
  O  O244  1  0.33325000  0.29957000  0.22602000  1
  O  O245  1  0.33325000  0.70043000  0.77398000  1
  O  O246  1  0.66675000  0.29957000  0.77398000  1
  O  O247  1  0.66675000  0.70043000  0.22602000  1
  O  O248  1  0.66675000  0.70043000  0.77398000  1
  O  O249  1  0.66675000  0.29957000  0.22602000  1
  O  O250  1  0.33325000  0.70043000  0.22602000  1
  O  O251  1  0.33325000  0.29957000  0.77398000  1
  O  O252  1  0.83325000  0.79957000  0.72602000  1
  O  O253  1  0.83325000  0.20043000  0.27398000  1
  O  O254  1  0.16675000  0.79957000  0.27398000  1
  O  O255  1  0.16675000  0.20043000  0.72602000  1
  O  O256  1  0.16675000  0.20043000  0.27398000  1
  O  O257  1  0.16675000  0.79957000  0.72602000  1
  O  O258  1  0.83325000  0.20043000  0.72602000  1
  O  O259  1  0.83325000  0.79957000  0.27398000  1
