# generated using pymatgen
data_SiO4
_symmetry_space_group_name_H-M   'P 1'
_cell_length_a   26.03578000
_cell_length_b   25.58951000
_cell_length_c   15.82481000
_cell_angle_alpha   90.00000000
_cell_angle_beta   90.00000000
_cell_angle_gamma   90.00000000
_symmetry_Int_Tables_number   1
_chemical_formula_structural   SiO4
_chemical_formula_sum   'Si1 O4'
_cell_volume   10543.16655733
_cell_formula_units_Z   1
loop_
 _symmetry_equiv_pos_site_id
 _symmetry_equiv_pos_as_xyz
  1  'x, y, z'
loop_
 _atom_site_type_symbol
 _atom_site_label
 _atom_site_symmetry_multiplicity
 _atom_site_fract_x
 _atom_site_fract_y
 _atom_site_fract_z
 _atom_site_occupancy
  Si  Si0  1  0.65636000  0.44034000  0.82900000  1
  O  O1  1  0.68575000  0.43072000  0.91708000  1
  O  O2  1  0.59612000  0.42873000  0.84260000  1
  O  O3  1  0.67960000  0.40093000  0.75948000  1
  O  O4  1  0.66418000  0.50000000  0.79937000  1
