# generated using pymatgen
data_SiO4
_symmetry_space_group_name_H-M   'P 1'
_cell_length_a   26.03578000
_cell_length_b   25.58951000
_cell_length_c   15.82481000
_cell_angle_alpha   90.00000000
_cell_angle_beta   90.00000000
_cell_angle_gamma   90.00000000
_symmetry_Int_Tables_number   1
_chemical_formula_structural   SiO4
_chemical_formula_sum   'Si1 O4'
_cell_volume   10543.16655733
_cell_formula_units_Z   1
loop_
 _symmetry_equiv_pos_site_id
 _symmetry_equiv_pos_as_xyz
  1  'x, y, z'
loop_
 _atom_site_type_symbol
 _atom_site_label
 _atom_site_symmetry_multiplicity
 _atom_site_fract_x
 _atom_site_fract_y
 _atom_site_fract_z
 _atom_site_occupancy
  Si  Si0  1  0.30499000  0.18811000  0.35072000  1
  O  O1  1  0.33677000  0.15274000  0.41673000  1
  O  O2  1  0.28926000  0.24212000  0.39598000  1
  O  O3  1  0.25401000  0.15758000  0.32108000  1
  O  O4  1  0.34025000  0.20064000  0.26961000  1
