# generated using pymatgen
data_Si
_symmetry_space_group_name_H-M   'P 1'
_cell_length_a   19.90203000
_cell_length_b   10.15609000
_cell_length_c   24.68916000
_cell_angle_alpha   90.00000000
_cell_angle_beta   105.88000000
_cell_angle_gamma   90.00000000
_symmetry_Int_Tables_number   1
_chemical_formula_structural   Si
_chemical_formula_sum   Si80
_cell_volume   4799.89411719
_cell_formula_units_Z   80
loop_
 _symmetry_equiv_pos_site_id
 _symmetry_equiv_pos_as_xyz
  1  'x, y, z'
loop_
 _atom_site_type_symbol
 _atom_site_label
 _atom_site_symmetry_multiplicity
 _atom_site_fract_x
 _atom_site_fract_y
 _atom_site_fract_z
 _atom_site_occupancy
  Si  Si0  1  0.05851000  0.14918000  0.11129000  1
  Si  Si1  1  0.94149000  0.64918000  0.38871000  1
  Si  Si2  1  0.94149000  0.85082000  0.88871000  1
  Si  Si3  1  0.05851000  0.35082000  0.61129000  1
  Si  Si4  1  0.15103000  0.09647000  0.03285000  1
  Si  Si5  1  0.84897000  0.59647000  0.46715000  1
  Si  Si6  1  0.84897000  0.90353000  0.96715000  1
  Si  Si7  1  0.15103000  0.40353000  0.53285000  1
  Si  Si8  1  0.30388000  0.14331000  0.02836000  1
  Si  Si9  1  0.69612000  0.64331000  0.47164000  1
  Si  Si10  1  0.69612000  0.85669000  0.97164000  1
  Si  Si11  1  0.30388000  0.35669000  0.52836000  1
  Si  Si12  1  0.43383000  0.02769000  0.11439000  1
  Si  Si13  1  0.56617000  0.52769000  0.38561000  1
  Si  Si14  1  0.56617000  0.97231000  0.88561000  1
  Si  Si15  1  0.43383000  0.47231000  0.61439000  1
  Si  Si16  1  0.03548000  0.40615000  0.17302000  1
  Si  Si17  1  0.96452000  0.90615000  0.32698000  1
  Si  Si18  1  0.96452000  0.59385000  0.82698000  1
  Si  Si19  1  0.03548000  0.09385000  0.67302000  1
  Si  Si20  1  0.06078000  0.65499000  0.11042000  1
  Si  Si21  1  0.93922000  0.15499000  0.38958000  1
  Si  Si22  1  0.93922000  0.34501000  0.88958000  1
  Si  Si23  1  0.06078000  0.84501000  0.61042000  1
  Si  Si24  1  0.14541000  0.60070000  0.02680000  1
  Si  Si25  1  0.85459000  0.10070000  0.47320000  1
  Si  Si26  1  0.85459000  0.39930000  0.97320000  1
  Si  Si27  1  0.14541000  0.89930000  0.52680000  1
  Si  Si28  1  0.29858000  0.65065000  0.01896000  1
  Si  Si29  1  0.70142000  0.15065000  0.48104000  1
  Si  Si30  1  0.70142000  0.34935000  0.98104000  1
  Si  Si31  1  0.29858000  0.84935000  0.51896000  1
  Si  Si32  1  0.43355000  0.72421000  0.10343000  1
  Si  Si33  1  0.56645000  0.22421000  0.39657000  1
  Si  Si34  1  0.56645000  0.27579000  0.89657000  1
  Si  Si35  1  0.43355000  0.77579000  0.60343000  1
  Si  Si36  1  0.10162000  0.39861000  0.30261000  1
  Si  Si37  1  0.89838000  0.89861000  0.19739000  1
  Si  Si38  1  0.89838000  0.60139000  0.69739000  1
  Si  Si39  1  0.10162000  0.10139000  0.80261000  1
  Si  Si40  1  0.17404000  0.15162000  0.36453000  1
  Si  Si41  1  0.82596000  0.65162000  0.13547000  1
  Si  Si42  1  0.82596000  0.84838000  0.63547000  1
  Si  Si43  1  0.17404000  0.34838000  0.86453000  1
  Si  Si44  1  0.09451000  0.15664000  0.45902000  1
  Si  Si45  1  0.90549000  0.65664000  0.04098000  1
  Si  Si46  1  0.90549000  0.84336000  0.54098000  1
  Si  Si47  1  0.09451000  0.34336000  0.95902000  1
  Si  Si48  1  0.31230000  0.11245000  0.45857000  1
  Si  Si49  1  0.68770000  0.61245000  0.04143000  1
  Si  Si50  1  0.68770000  0.88755000  0.54143000  1
  Si  Si51  1  0.31230000  0.38755000  0.95857000  1
  Si  Si52  1  0.47277000  0.14206000  0.47471000  1
  Si  Si53  1  0.52723000  0.64206000  0.02529000  1
  Si  Si54  1  0.52723000  0.85794000  0.52529000  1
  Si  Si55  1  0.47277000  0.35794000  0.97471000  1
  Si  Si56  1  0.17085000  0.63830000  0.36411000  1
  Si  Si57  1  0.82915000  0.13830000  0.13589000  1
  Si  Si58  1  0.82915000  0.36170000  0.63589000  1
  Si  Si59  1  0.17085000  0.86170000  0.86411000  1
  Si  Si60  1  0.09267000  0.64608000  0.46080000  1
  Si  Si61  1  0.90733000  0.14608000  0.03920000  1
  Si  Si62  1  0.90733000  0.35392000  0.53920000  1
  Si  Si63  1  0.09267000  0.85392000  0.96080000  1
  Si  Si64  1  0.31157000  0.59403000  0.44970000  1
  Si  Si65  1  0.68843000  0.09403000  0.05030000  1
  Si  Si66  1  0.68843000  0.40597000  0.55030000  1
  Si  Si67  1  0.31157000  0.90597000  0.94970000  1
  Si  Si68  1  0.47032000  0.61015000  0.45283000  1
  Si  Si69  1  0.52968000  0.11015000  0.04717000  1
  Si  Si70  1  0.52968000  0.38985000  0.54717000  1
  Si  Si71  1  0.47032000  0.88985000  0.95283000  1
  Si  Si72  1  0.11354000  0.90103000  0.30829000  1
  Si  Si73  1  0.88646000  0.40103000  0.19171000  1
  Si  Si74  1  0.88646000  0.09897000  0.69171000  1
  Si  Si75  1  0.11354000  0.59897000  0.80829000  1
  Si  Si76  1  0.04655000  0.90367000  0.17848000  1
  Si  Si77  1  0.95345000  0.40367000  0.32152000  1
  Si  Si78  1  0.95345000  0.09633000  0.82152000  1
  Si  Si79  1  0.04655000  0.59633000  0.67848000  1
