# generated using pymatgen
data_O2
_symmetry_space_group_name_H-M   'P 1'
_cell_length_a   19.90203000
_cell_length_b   10.15609000
_cell_length_c   24.68916000
_cell_angle_alpha   90.00000000
_cell_angle_beta   105.88000000
_cell_angle_gamma   90.00000000
_symmetry_Int_Tables_number   1
_chemical_formula_structural   O2
_chemical_formula_sum   O164
_cell_volume   4799.89411719
_cell_formula_units_Z   82
loop_
 _symmetry_equiv_pos_site_id
 _symmetry_equiv_pos_as_xyz
  1  'x, y, z'
loop_
 _atom_site_type_symbol
 _atom_site_label
 _atom_site_symmetry_multiplicity
 _atom_site_fract_x
 _atom_site_fract_y
 _atom_site_fract_z
 _atom_site_occupancy
  O  O0  1  0.06557000  0.05120000  0.16385000  1
  O  O1  1  0.93443000  0.55120000  0.33615000  1
  O  O2  1  0.93443000  0.94880000  0.83615000  1
  O  O3  1  0.06557000  0.44880000  0.66385000  1
  O  O4  1  0.01070000  0.61232000  0.43785000  1
  O  O5  1  0.98930000  0.11232000  0.06215000  1
  O  O6  1  0.98930000  0.38768000  0.56215000  1
  O  O7  1  0.01070000  0.88768000  0.93785000  1
  O  O8  1  0.05219000  0.29920000  0.13034000  1
  O  O9  1  0.94781000  0.79920000  0.36966000  1
  O  O10  1  0.94781000  0.70080000  0.86966000  1
  O  O11  1  0.05219000  0.20080000  0.63034000  1
  O  O12  1  0.12594000  0.13313000  0.08772000  1
  O  O13  1  0.87406000  0.63313000  0.41228000  1
  O  O14  1  0.87406000  0.86687000  0.91228000  1
  O  O15  1  0.12594000  0.36687000  0.58772000  1
  O  O16  1  0.12749000  0.94821000  0.01344000  1
  O  O17  1  0.87251000  0.44821000  0.48656000  1
  O  O18  1  0.87251000  0.05179000  0.98656000  1
  O  O19  1  0.12749000  0.55179000  0.51344000  1
  O  O20  1  0.11553000  0.30280000  0.48287000  1
  O  O21  1  0.88447000  0.80280000  0.01713000  1
  O  O22  1  0.88447000  0.69720000  0.51713000  1
  O  O23  1  0.11553000  0.19720000  0.98287000  1
  O  O24  1  0.23476000  0.10741000  0.04721000  1
  O  O25  1  0.76524000  0.60741000  0.45279000  1
  O  O26  1  0.76524000  0.89259000  0.95279000  1
  O  O27  1  0.23476000  0.39259000  0.54721000  1
  O  O28  1  0.37174000  0.12331000  0.08098000  1
  O  O29  1  0.62826000  0.62331000  0.41902000  1
  O  O30  1  0.62826000  0.87669000  0.91902000  1
  O  O31  1  0.37174000  0.37669000  0.58098000  1
  O  O32  1  0.29938000  0.29410000  0.00744000  1
  O  O33  1  0.70062000  0.79410000  0.49256000  1
  O  O34  1  0.70062000  0.70590000  0.99256000  1
  O  O35  1  0.29938000  0.20590000  0.50744000  1
  O  O36  1  0.30985000  0.45117000  0.47753000  1
  O  O37  1  0.69015000  0.95117000  0.02247000  1
  O  O38  1  0.69015000  0.54883000  0.52247000  1
  O  O39  1  0.30985000  0.04883000  0.97753000  1
  O  O40  1  0.44088000  0.03468000  0.18085000  1
  O  O41  1  0.55912000  0.53468000  0.31915000  1
  O  O42  1  0.55912000  0.96532000  0.81915000  1
  O  O43  1  0.44088000  0.46532000  0.68085000  1
  O  O44  1  0.49384000  0.57356000  0.39719000  1
  O  O45  1  0.50616000  0.07356000  0.10281000  1
  O  O46  1  0.50616000  0.42644000  0.60281000  1
  O  O47  1  0.49384000  0.92644000  0.89719000  1
  O  O48  1  0.41734000  0.87871000  0.09251000  1
  O  O49  1  0.58266000  0.37871000  0.40749000  1
  O  O50  1  0.58266000  0.12129000  0.90749000  1
  O  O51  1  0.41734000  0.62129000  0.59251000  1
  O  O52  1  0.07615000  0.36488000  0.23647000  1
  O  O53  1  0.92385000  0.86488000  0.26353000  1
  O  O54  1  0.92385000  0.63512000  0.76353000  1
  O  O55  1  0.07615000  0.13512000  0.73647000  1
  O  O56  1  0.04719000  0.91166000  0.33348000  1
  O  O57  1  0.95281000  0.41166000  0.16652000  1
  O  O58  1  0.95281000  0.08834000  0.66652000  1
  O  O59  1  0.04719000  0.58834000  0.83348000  1
  O  O60  1  0.06129000  0.54941000  0.15918000  1
  O  O61  1  0.93871000  0.04941000  0.34082000  1
  O  O62  1  0.93871000  0.45059000  0.84082000  1
  O  O63  1  0.06129000  0.95059000  0.65918000  1
  O  O64  1  0.12573000  0.62592000  0.08503000  1
  O  O65  1  0.87427000  0.12592000  0.41497000  1
  O  O66  1  0.87427000  0.37408000  0.91497000  1
  O  O67  1  0.12573000  0.87408000  0.58503000  1
  O  O68  1  0.06787000  0.80168000  0.13607000  1
  O  O69  1  0.93213000  0.30168000  0.36393000  1
  O  O70  1  0.93213000  0.19832000  0.86393000  1
  O  O71  1  0.06787000  0.69832000  0.63607000  1
  O  O72  1  0.01075000  0.14269000  0.43928000  1
  O  O73  1  0.98925000  0.64269000  0.06072000  1
  O  O74  1  0.98925000  0.85731000  0.56072000  1
  O  O75  1  0.01075000  0.35731000  0.93928000  1
  O  O76  1  0.12666000  0.45101000  0.00695000  1
  O  O77  1  0.87334000  0.95101000  0.49305000  1
  O  O78  1  0.87334000  0.54899000  0.99305000  1
  O  O79  1  0.12666000  0.04899000  0.50695000  1
  O  O80  1  0.10221000  0.79811000  0.47988000  1
  O  O81  1  0.89779000  0.29811000  0.02012000  1
  O  O82  1  0.89779000  0.20189000  0.52012000  1
  O  O83  1  0.10221000  0.70189000  0.97988000  1
  O  O84  1  0.22777000  0.62552000  0.03690000  1
  O  O85  1  0.77223000  0.12552000  0.46310000  1
  O  O86  1  0.77223000  0.37448000  0.96310000  1
  O  O87  1  0.22777000  0.87448000  0.53690000  1
  O  O88  1  0.30669000  0.95996000  0.47451000  1
  O  O89  1  0.69331000  0.45996000  0.02549000  1
  O  O90  1  0.69331000  0.04004000  0.52549000  1
  O  O91  1  0.30669000  0.54004000  0.97451000  1
  O  O92  1  0.36397000  0.64161000  0.07428000  1
  O  O93  1  0.63603000  0.14161000  0.42572000  1
  O  O94  1  0.63603000  0.35839000  0.92572000  1
  O  O95  1  0.36397000  0.85839000  0.57428000  1
  O  O96  1  0.29675000  0.79458000  0.99135000  1
  O  O97  1  0.70325000  0.29458000  0.50865000  1
  O  O98  1  0.70325000  0.20542000  0.00865000  1
  O  O99  1  0.29675000  0.70542000  0.49135000  1
  O  O100  1  0.49481000  0.67969000  0.07624000  1
  O  O101  1  0.50519000  0.17969000  0.42376000  1
  O  O102  1  0.50519000  0.32031000  0.92376000  1
  O  O103  1  0.49481000  0.82031000  0.57624000  1
  O  O104  1  0.45689000  0.69558000  0.17010000  1
  O  O105  1  0.54311000  0.19558000  0.32990000  1
  O  O106  1  0.54311000  0.30442000  0.82990000  1
  O  O107  1  0.45689000  0.80442000  0.67010000  1
  O  O108  1  0.15947000  0.29319000  0.33430000  1
  O  O109  1  0.84053000  0.79319000  0.16570000  1
  O  O110  1  0.84053000  0.70681000  0.66570000  1
  O  O111  1  0.15947000  0.20681000  0.83430000  1
  O  O112  1  0.13644000  0.54292000  0.31173000  1
  O  O113  1  0.86356000  0.04292000  0.18827000  1
  O  O114  1  0.86356000  0.45708000  0.68827000  1
  O  O115  1  0.13644000  0.95708000  0.81173000  1
  O  O116  1  0.03624000  0.39366000  0.32912000  1
  O  O117  1  0.96376000  0.89366000  0.17088000  1
  O  O118  1  0.96376000  0.60634000  0.67088000  1
  O  O119  1  0.03624000  0.10634000  0.82912000  1
  O  O120  1  0.12473000  0.13155000  0.40576000  1
  O  O121  1  0.87527000  0.63155000  0.09424000  1
  O  O122  1  0.87527000  0.86845000  0.59424000  1
  O  O123  1  0.12473000  0.36845000  0.90576000  1
  O  O124  1  0.15573000  0.03830000  0.31711000  1
  O  O125  1  0.84427000  0.53830000  0.18289000  1
  O  O126  1  0.84427000  0.96170000  0.68289000  1
  O  O127  1  0.15573000  0.46170000  0.81711000  1
  O  O128  1  0.25485000  0.14260000  0.39992000  1
  O  O129  1  0.74515000  0.64260000  0.10008000  1
  O  O130  1  0.74515000  0.85740000  0.60008000  1
  O  O131  1  0.25485000  0.35740000  0.89992000  1
  O  O132  1  0.38893000  0.14081000  0.45129000  1
  O  O133  1  0.61107000  0.64081000  0.04871000  1
  O  O134  1  0.61107000  0.85919000  0.54871000  1
  O  O135  1  0.38893000  0.35919000  0.95129000  1
  O  O136  1  0.50000000  0.00000000  0.50000000  1
  O  O137  1  0.50000000  0.50000000  0.00000000  1
  O  O138  1  0.49625000  0.25057000  0.02424000  1
  O  O139  1  0.50375000  0.75057000  0.47576000  1
  O  O140  1  0.50375000  0.74943000  0.97576000  1
  O  O141  1  0.49625000  0.24943000  0.52424000  1
  O  O142  1  0.16511000  0.78804000  0.34194000  1
  O  O143  1  0.83489000  0.28804000  0.15806000  1
  O  O144  1  0.83489000  0.21196000  0.65806000  1
  O  O145  1  0.16511000  0.71196000  0.84194000  1
  O  O146  1  0.25177000  0.60053000  0.39068000  1
  O  O147  1  0.74823000  0.10053000  0.10932000  1
  O  O148  1  0.74823000  0.39947000  0.60932000  1
  O  O149  1  0.25177000  0.89947000  0.89068000  1
  O  O150  1  0.12958000  0.62091000  0.41132000  1
  O  O151  1  0.87042000  0.12091000  0.08868000  1
  O  O152  1  0.87042000  0.37909000  0.58868000  1
  O  O153  1  0.12958000  0.87909000  0.91132000  1
  O  O154  1  0.38655000  0.61788000  0.43843000  1
  O  O155  1  0.61345000  0.11788000  0.06157000  1
  O  O156  1  0.61345000  0.38212000  0.56157000  1
  O  O157  1  0.38655000  0.88212000  0.93843000  1
  O  O158  1  0.50000000  0.50000000  0.50000000  1
  O  O159  1  0.50000000  0.00000000  0.00000000  1
  O  O160  1  0.08818000  0.86656000  0.24221000  1
  O  O161  1  0.91182000  0.36656000  0.25779000  1
  O  O162  1  0.91182000  0.13344000  0.75779000  1
  O  O163  1  0.08818000  0.63344000  0.74221000  1
