# generated using pymatgen
data_SiO4
_symmetry_space_group_name_H-M   'P 1'
_cell_length_a   19.90203000
_cell_length_b   10.15609000
_cell_length_c   24.68916000
_cell_angle_alpha   90.00000000
_cell_angle_beta   105.88000000
_cell_angle_gamma   90.00000000
_symmetry_Int_Tables_number   1
_chemical_formula_structural   SiO4
_chemical_formula_sum   'Si1 O4'
_cell_volume   4799.89411719
_cell_formula_units_Z   1
loop_
 _symmetry_equiv_pos_site_id
 _symmetry_equiv_pos_as_xyz
  1  'x, y, z'
loop_
 _atom_site_type_symbol
 _atom_site_label
 _atom_site_symmetry_multiplicity
 _atom_site_fract_x
 _atom_site_fract_y
 _atom_site_fract_z
 _atom_site_occupancy
  Si  Si0  1  0.03548000  0.09385000  0.67302000  1
  O  O1  1  0.05219000  0.20080000  0.63034000  1
  O  O2  1  0.07615000  0.13512000  0.73647000  1
  O  O3  1  -0.04719000  0.08834000  0.66652000  1
  O  O4  1  0.06129000  -0.04941000  0.65918000  1
