# generated using pymatgen
data_SiO4
_symmetry_space_group_name_H-M   'P 1'
_cell_length_a   19.90203000
_cell_length_b   10.15609000
_cell_length_c   24.68916000
_cell_angle_alpha   90.00000000
_cell_angle_beta   105.88000000
_cell_angle_gamma   90.00000000
_symmetry_Int_Tables_number   1
_chemical_formula_structural   SiO4
_chemical_formula_sum   'Si1 O4'
_cell_volume   4799.89411719
_cell_formula_units_Z   1
loop_
 _symmetry_equiv_pos_site_id
 _symmetry_equiv_pos_as_xyz
  1  'x, y, z'
loop_
 _atom_site_type_symbol
 _atom_site_label
 _atom_site_symmetry_multiplicity
 _atom_site_fract_x
 _atom_site_fract_y
 _atom_site_fract_z
 _atom_site_occupancy
  Si  Si0  1  0.11354000  0.59897000  0.80829000  1
  O  O1  1  0.04719000  0.58834000  0.83348000  1
  O  O2  1  0.15573000  0.46170000  0.81711000  1
  O  O3  1  0.16511000  0.71196000  0.84194000  1
  O  O4  1  0.08818000  0.63344000  0.74221000  1
