# generated using pymatgen
data_SiO4
_symmetry_space_group_name_H-M   'P 1'
_cell_length_a   14.68900000
_cell_length_b   8.64500000
_cell_length_c   18.94100000
_cell_angle_alpha   90.00000000
_cell_angle_beta   90.00000000
_cell_angle_gamma   90.00000000
_symmetry_Int_Tables_number   1
_chemical_formula_structural   SiO4
_chemical_formula_sum   'Si1 O4'
_cell_volume   2405.24949710
_cell_formula_units_Z   1
loop_
 _symmetry_equiv_pos_site_id
 _symmetry_equiv_pos_as_xyz
  1  'x, y, z'
loop_
 _atom_site_type_symbol
 _atom_site_label
 _atom_site_symmetry_multiplicity
 _atom_site_fract_x
 _atom_site_fract_y
 _atom_site_fract_z
 _atom_site_occupancy
  Si  Si0  1  0.62890000  0.37920000  0.52540000  1
  O  O1  1  0.59840000  0.39310000  0.44390000  1
  O  O2  1  0.71310000  0.49370000  0.54020000  1
  O  O3  1  0.54430000  0.42680000  0.57500000  1
  O  O4  1  0.65820000  0.20360000  0.54210000  1
