# generated using pymatgen
data_SiO4
_symmetry_space_group_name_H-M   'P 1'
_cell_length_a   14.68900000
_cell_length_b   8.64500000
_cell_length_c   18.94100000
_cell_angle_alpha   90.00000000
_cell_angle_beta   90.00000000
_cell_angle_gamma   90.00000000
_symmetry_Int_Tables_number   1
_chemical_formula_structural   SiO4
_chemical_formula_sum   'Si1 O4'
_cell_volume   2405.24949710
_cell_formula_units_Z   1
loop_
 _symmetry_equiv_pos_site_id
 _symmetry_equiv_pos_as_xyz
  1  'x, y, z'
loop_
 _atom_site_type_symbol
 _atom_site_label
 _atom_site_symmetry_multiplicity
 _atom_site_fract_x
 _atom_site_fract_y
 _atom_site_fract_z
 _atom_site_occupancy
  Si  Si0  1  0.99290000  0.08080000  0.89850000  1
  O  O1  1  1.06010000  0.22670000  0.90830000  1
  O  O2  1  0.90160000  0.10690000  0.94390000  1
  O  O3  1  0.96940000  0.06560000  0.81570000  1
  O  O4  1  1.04430000  -0.07320000  0.92500000  1
