# generated using pymatgen
data_Si
_symmetry_space_group_name_H-M   'P 1'
_cell_length_a   14.68900000
_cell_length_b   8.64500000
_cell_length_c   18.94100000
_cell_angle_alpha   90.00000000
_cell_angle_beta   90.00000000
_cell_angle_gamma   90.00000000
_symmetry_Int_Tables_number   1
_chemical_formula_structural   Si
_chemical_formula_sum   Si36
_cell_volume   2405.24949710
_cell_formula_units_Z   36
loop_
 _symmetry_equiv_pos_site_id
 _symmetry_equiv_pos_as_xyz
  1  'x, y, z'
loop_
 _atom_site_type_symbol
 _atom_site_label
 _atom_site_symmetry_multiplicity
 _atom_site_fract_x
 _atom_site_fract_y
 _atom_site_fract_z
 _atom_site_occupancy
  Si  Si0  1  0.63120000  0.79460000  0.64870000  1
  Si  Si1  1  0.86880000  0.70540000  0.14870000  1
  Si  Si2  1  0.36880000  0.79460000  0.85130000  1
  Si  Si3  1  0.13120000  0.70540000  0.35130000  1
  Si  Si4  1  0.36880000  0.20540000  0.35130000  1
  Si  Si5  1  0.13120000  0.29460000  0.85130000  1
  Si  Si6  1  0.63120000  0.20540000  0.14870000  1
  Si  Si7  1  0.86880000  0.29460000  0.64870000  1
  Si  Si8  1  0.49290000  0.58080000  0.60150000  1
  Si  Si9  1  0.00710000  0.91920000  0.10150000  1
  Si  Si10  1  0.50710000  0.58080000  0.89850000  1
  Si  Si11  1  0.99290000  0.91920000  0.39850000  1
  Si  Si12  1  0.50710000  0.41920000  0.39850000  1
  Si  Si13  1  0.99290000  0.08080000  0.89850000  1
  Si  Si14  1  0.49290000  0.41920000  0.10150000  1
  Si  Si15  1  0.00710000  0.08080000  0.60150000  1
  Si  Si16  1  0.21920000  0.40940000  0.40970000  1
  Si  Si17  1  0.28080000  0.09060000  0.90970000  1
  Si  Si18  1  0.78080000  0.40940000  0.09030000  1
  Si  Si19  1  0.71920000  0.09060000  0.59030000  1
  Si  Si20  1  0.78080000  0.59060000  0.59030000  1
  Si  Si21  1  0.71920000  0.90940000  0.09030000  1
  Si  Si22  1  0.21920000  0.59060000  0.90970000  1
  Si  Si23  1  0.28080000  0.90940000  0.40970000  1
  Si  Si24  1  0.37110000  0.62080000  0.47460000  1
  Si  Si25  1  0.12890000  0.87920000  0.97460000  1
  Si  Si26  1  0.62890000  0.62080000  0.02540000  1
  Si  Si27  1  0.87110000  0.87920000  0.52540000  1
  Si  Si28  1  0.62890000  0.37920000  0.52540000  1
  Si  Si29  1  0.87110000  0.12080000  0.02540000  1
  Si  Si30  1  0.37110000  0.37920000  0.97460000  1
  Si  Si31  1  0.12890000  0.12080000  0.47460000  1
  Si  Si32  1  0.00000000  0.82800000  0.25000000  1
  Si  Si33  1  0.50000000  0.67200000  0.75000000  1
  Si  Si34  1  0.00000000  0.17200000  0.75000000  1
  Si  Si35  1  0.50000000  0.32800000  0.25000000  1
