# generated using pymatgen
data_O2
_symmetry_space_group_name_H-M   'P 1'
_cell_length_a   14.68900000
_cell_length_b   8.64500000
_cell_length_c   18.94100000
_cell_angle_alpha   90.00000000
_cell_angle_beta   90.00000000
_cell_angle_gamma   90.00000000
_symmetry_Int_Tables_number   1
_chemical_formula_structural   O2
_chemical_formula_sum   O72
_cell_volume   2405.24949710
_cell_formula_units_Z   36
loop_
 _symmetry_equiv_pos_site_id
 _symmetry_equiv_pos_as_xyz
  1  'x, y, z'
loop_
 _atom_site_type_symbol
 _atom_site_label
 _atom_site_symmetry_multiplicity
 _atom_site_fract_x
 _atom_site_fract_y
 _atom_site_fract_z
 _atom_site_occupancy
  O  O0  1  0.56010000  0.72670000  0.59170000  1
  O  O1  1  0.93990000  0.77330000  0.09170000  1
  O  O2  1  0.43990000  0.72670000  0.90830000  1
  O  O3  1  0.06010000  0.77330000  0.40830000  1
  O  O4  1  0.43990000  0.27330000  0.40830000  1
  O  O5  1  0.06010000  0.22670000  0.90830000  1
  O  O6  1  0.56010000  0.27330000  0.09170000  1
  O  O7  1  0.93990000  0.22670000  0.59170000  1
  O  O8  1  0.40160000  0.60690000  0.55610000  1
  O  O9  1  0.09840000  0.89310000  0.05610000  1
  O  O10  1  0.59840000  0.60690000  0.94390000  1
  O  O11  1  0.90160000  0.89310000  0.44390000  1
  O  O12  1  0.59840000  0.39310000  0.44390000  1
  O  O13  1  0.90160000  0.10690000  0.94390000  1
  O  O14  1  0.40160000  0.39310000  0.05610000  1
  O  O15  1  0.09840000  0.10690000  0.55610000  1
  O  O16  1  0.28690000  0.50630000  0.45980000  1
  O  O17  1  0.21310000  0.99370000  0.95980000  1
  O  O18  1  0.71310000  0.50630000  0.04020000  1
  O  O19  1  0.78690000  0.99370000  0.54020000  1
  O  O20  1  0.71310000  0.49370000  0.54020000  1
  O  O21  1  0.78690000  0.00630000  0.04020000  1
  O  O22  1  0.28690000  0.49370000  0.95980000  1
  O  O23  1  0.21310000  0.00630000  0.45980000  1
  O  O24  1  0.27720000  0.30750000  0.35450000  1
  O  O25  1  0.22280000  0.19250000  0.85450000  1
  O  O26  1  0.72280000  0.30750000  0.14550000  1
  O  O27  1  0.77720000  0.19250000  0.64550000  1
  O  O28  1  0.72280000  0.69250000  0.64550000  1
  O  O29  1  0.77720000  0.80750000  0.14550000  1
  O  O30  1  0.27720000  0.69250000  0.85450000  1
  O  O31  1  0.22280000  0.80750000  0.35450000  1
  O  O32  1  0.58410000  0.77870000  0.72530000  1
  O  O33  1  0.91590000  0.72130000  0.22530000  1
  O  O34  1  0.41590000  0.77870000  0.77470000  1
  O  O35  1  0.08410000  0.72130000  0.27470000  1
  O  O36  1  0.41590000  0.22130000  0.27470000  1
  O  O37  1  0.08410000  0.27870000  0.77470000  1
  O  O38  1  0.58410000  0.22130000  0.22530000  1
  O  O39  1  0.91590000  0.27870000  0.72530000  1
  O  O40  1  0.46940000  0.56560000  0.68430000  1
  O  O41  1  0.03060000  0.93440000  0.18430000  1
  O  O42  1  0.53060000  0.56560000  0.81570000  1
  O  O43  1  0.96940000  0.93440000  0.31570000  1
  O  O44  1  0.53060000  0.43440000  0.31570000  1
  O  O45  1  0.96940000  0.06560000  0.81570000  1
  O  O46  1  0.46940000  0.43440000  0.18430000  1
  O  O47  1  0.03060000  0.06560000  0.68430000  1
  O  O48  1  0.45570000  0.57320000  0.42500000  1
  O  O49  1  0.04430000  0.92680000  0.92500000  1
  O  O50  1  0.54430000  0.57320000  0.07500000  1
  O  O51  1  0.95570000  0.92680000  0.57500000  1
  O  O52  1  0.54430000  0.42680000  0.57500000  1
  O  O53  1  0.95570000  0.07320000  0.07500000  1
  O  O54  1  0.45570000  0.42680000  0.92500000  1
  O  O55  1  0.04430000  0.07320000  0.42500000  1
  O  O56  1  0.65370000  0.97300000  0.63230000  1
  O  O57  1  0.84630000  0.52700000  0.13230000  1
  O  O58  1  0.34630000  0.97300000  0.86770000  1
  O  O59  1  0.15370000  0.52700000  0.36770000  1
  O  O60  1  0.34630000  0.02700000  0.36770000  1
  O  O61  1  0.15370000  0.47300000  0.86770000  1
  O  O62  1  0.65370000  0.02700000  0.13230000  1
  O  O63  1  0.84630000  0.47300000  0.63230000  1
  O  O64  1  0.15820000  0.29640000  0.45790000  1
  O  O65  1  0.34180000  0.20360000  0.95790000  1
  O  O66  1  0.84180000  0.29640000  0.04210000  1
  O  O67  1  0.65820000  0.20360000  0.54210000  1
  O  O68  1  0.84180000  0.70360000  0.54210000  1
  O  O69  1  0.65820000  0.79640000  0.04210000  1
  O  O70  1  0.15820000  0.70360000  0.95790000  1
  O  O71  1  0.34180000  0.79640000  0.45790000  1
