# generated using pymatgen
data_Si
_symmetry_space_group_name_H-M   'P 1'
_cell_length_a   10.23300000
_cell_length_b   12.55800000
_cell_length_c   21.71700000
_cell_angle_alpha   90.00000000
_cell_angle_beta   90.00000000
_cell_angle_gamma   90.00000000
_symmetry_Int_Tables_number   1
_chemical_formula_structural   Si
_chemical_formula_sum   Si48
_cell_volume   2790.76510604
_cell_formula_units_Z   48
loop_
 _symmetry_equiv_pos_site_id
 _symmetry_equiv_pos_as_xyz
  1  'x, y, z'
loop_
 _atom_site_type_symbol
 _atom_site_label
 _atom_site_symmetry_multiplicity
 _atom_site_fract_x
 _atom_site_fract_y
 _atom_site_fract_z
 _atom_site_occupancy
  Si  Si0  1  0.22040000  0.37080000  0.11080000  1
  Si  Si1  1  0.72040000  0.87080000  0.61080000  1
  Si  Si2  1  0.77960000  0.37080000  0.11080000  1
  Si  Si3  1  0.27960000  0.87080000  0.61080000  1
  Si  Si4  1  0.22040000  0.12920000  0.11080000  1
  Si  Si5  1  0.72040000  0.62920000  0.61080000  1
  Si  Si6  1  0.77960000  0.12920000  0.11080000  1
  Si  Si7  1  0.27960000  0.62920000  0.61080000  1
  Si  Si8  1  0.77960000  0.62920000  0.88920000  1
  Si  Si9  1  0.27960000  0.12920000  0.38920000  1
  Si  Si10  1  0.22040000  0.62920000  0.88920000  1
  Si  Si11  1  0.72040000  0.12920000  0.38920000  1
  Si  Si12  1  0.77960000  0.87080000  0.88920000  1
  Si  Si13  1  0.27960000  0.37080000  0.38920000  1
  Si  Si14  1  0.22040000  0.87080000  0.88920000  1
  Si  Si15  1  0.72040000  0.37080000  0.38920000  1
  Si  Si16  1  0.00000000  0.56160000  0.65580000  1
  Si  Si17  1  0.50000000  0.06160000  0.15580000  1
  Si  Si18  1  0.00000000  0.93840000  0.65580000  1
  Si  Si19  1  0.50000000  0.43840000  0.15580000  1
  Si  Si20  1  0.00000000  0.43840000  0.34420000  1
  Si  Si21  1  0.50000000  0.93840000  0.84420000  1
  Si  Si22  1  0.00000000  0.06160000  0.34420000  1
  Si  Si23  1  0.50000000  0.56160000  0.84420000  1
  Si  Si24  1  0.00000000  0.87440000  0.79250000  1
  Si  Si25  1  0.50000000  0.37440000  0.29250000  1
  Si  Si26  1  0.00000000  0.62560000  0.79250000  1
  Si  Si27  1  0.50000000  0.12560000  0.29250000  1
  Si  Si28  1  0.00000000  0.12560000  0.20750000  1
  Si  Si29  1  0.50000000  0.62560000  0.70750000  1
  Si  Si30  1  0.00000000  0.37440000  0.20750000  1
  Si  Si31  1  0.50000000  0.87440000  0.70750000  1
  Si  Si32  1  0.00000000  0.87500000  0.43400000  1
  Si  Si33  1  0.50000000  0.37500000  0.93400000  1
  Si  Si34  1  0.00000000  0.62500000  0.43400000  1
  Si  Si35  1  0.50000000  0.12500000  0.93400000  1
  Si  Si36  1  0.00000000  0.12500000  0.56600000  1
  Si  Si37  1  0.50000000  0.62500000  0.06600000  1
  Si  Si38  1  0.00000000  0.37500000  0.56600000  1
  Si  Si39  1  0.50000000  0.87500000  0.06600000  1
  Si  Si40  1  0.21820000  0.50000000  0.50000000  1
  Si  Si41  1  0.71820000  0.00000000  0.00000000  1
  Si  Si42  1  0.78180000  0.50000000  0.50000000  1
  Si  Si43  1  0.28180000  0.00000000  0.00000000  1
  Si  Si44  1  0.21820000  0.00000000  0.50000000  1
  Si  Si45  1  0.71820000  0.50000000  0.00000000  1
  Si  Si46  1  0.78180000  0.00000000  0.50000000  1
  Si  Si47  1  0.28180000  0.50000000  0.00000000  1
