# generated using pymatgen
data_O2
_symmetry_space_group_name_H-M   'P 1'
_cell_length_a   10.23300000
_cell_length_b   12.55800000
_cell_length_c   21.71700000
_cell_angle_alpha   90.00000000
_cell_angle_beta   90.00000000
_cell_angle_gamma   90.00000000
_symmetry_Int_Tables_number   1
_chemical_formula_structural   O2
_chemical_formula_sum   O96
_cell_volume   2790.76510604
_cell_formula_units_Z   48
loop_
 _symmetry_equiv_pos_site_id
 _symmetry_equiv_pos_as_xyz
  1  'x, y, z'
loop_
 _atom_site_type_symbol
 _atom_site_label
 _atom_site_symmetry_multiplicity
 _atom_site_fract_x
 _atom_site_fract_y
 _atom_site_fract_z
 _atom_site_occupancy
  O  O0  1  0.19300000  0.45070000  0.05420000  1
  O  O1  1  0.69300000  0.95070000  0.55420000  1
  O  O2  1  0.80700000  0.45070000  0.05420000  1
  O  O3  1  0.30700000  0.95070000  0.55420000  1
  O  O4  1  0.19300000  0.04930000  0.05420000  1
  O  O5  1  0.69300000  0.54930000  0.55420000  1
  O  O6  1  0.80700000  0.04930000  0.05420000  1
  O  O7  1  0.30700000  0.54930000  0.55420000  1
  O  O8  1  0.80700000  0.54930000  0.94580000  1
  O  O9  1  0.30700000  0.04930000  0.44580000  1
  O  O10  1  0.19300000  0.54930000  0.94580000  1
  O  O11  1  0.69300000  0.04930000  0.44580000  1
  O  O12  1  0.80700000  0.95070000  0.94580000  1
  O  O13  1  0.30700000  0.45070000  0.44580000  1
  O  O14  1  0.19300000  0.95070000  0.94580000  1
  O  O15  1  0.69300000  0.45070000  0.44580000  1
  O  O16  1  0.37130000  0.37800000  0.13140000  1
  O  O17  1  0.87130000  0.87800000  0.63140000  1
  O  O18  1  0.62870000  0.37800000  0.13140000  1
  O  O19  1  0.12870000  0.87800000  0.63140000  1
  O  O20  1  0.37130000  0.12200000  0.13140000  1
  O  O21  1  0.87130000  0.62200000  0.63140000  1
  O  O22  1  0.62870000  0.12200000  0.13140000  1
  O  O23  1  0.12870000  0.62200000  0.63140000  1
  O  O24  1  0.62870000  0.62200000  0.86860000  1
  O  O25  1  0.12870000  0.12200000  0.36860000  1
  O  O26  1  0.37130000  0.62200000  0.86860000  1
  O  O27  1  0.87130000  0.12200000  0.36860000  1
  O  O28  1  0.62870000  0.87800000  0.86860000  1
  O  O29  1  0.12870000  0.37800000  0.36860000  1
  O  O30  1  0.37130000  0.87800000  0.86860000  1
  O  O31  1  0.87130000  0.37800000  0.36860000  1
  O  O32  1  0.12850000  0.40270000  0.16800000  1
  O  O33  1  0.62850000  0.90270000  0.66800000  1
  O  O34  1  0.87150000  0.40270000  0.16800000  1
  O  O35  1  0.37150000  0.90270000  0.66800000  1
  O  O36  1  0.12850000  0.09730000  0.16800000  1
  O  O37  1  0.62850000  0.59730000  0.66800000  1
  O  O38  1  0.87150000  0.09730000  0.16800000  1
  O  O39  1  0.37150000  0.59730000  0.66800000  1
  O  O40  1  0.87150000  0.59730000  0.83200000  1
  O  O41  1  0.37150000  0.09730000  0.33200000  1
  O  O42  1  0.12850000  0.59730000  0.83200000  1
  O  O43  1  0.62850000  0.09730000  0.33200000  1
  O  O44  1  0.87150000  0.90270000  0.83200000  1
  O  O45  1  0.37150000  0.40270000  0.33200000  1
  O  O46  1  0.12850000  0.90270000  0.83200000  1
  O  O47  1  0.62850000  0.40270000  0.33200000  1
  O  O48  1  0.18900000  0.25000000  0.09050000  1
  O  O49  1  0.68900000  0.75000000  0.59050000  1
  O  O50  1  0.81100000  0.25000000  0.09050000  1
  O  O51  1  0.31100000  0.75000000  0.59050000  1
  O  O52  1  0.81100000  0.75000000  0.90950000  1
  O  O53  1  0.31100000  0.25000000  0.40950000  1
  O  O54  1  0.18900000  0.75000000  0.90950000  1
  O  O55  1  0.68900000  0.25000000  0.40950000  1
  O  O56  1  0.00000000  0.44180000  0.62930000  1
  O  O57  1  0.50000000  0.94180000  0.12930000  1
  O  O58  1  0.00000000  0.05820000  0.62930000  1
  O  O59  1  0.50000000  0.55820000  0.12930000  1
  O  O60  1  0.00000000  0.55820000  0.37070000  1
  O  O61  1  0.50000000  0.05820000  0.87070000  1
  O  O62  1  0.00000000  0.94180000  0.37070000  1
  O  O63  1  0.50000000  0.44180000  0.87070000  1
  O  O64  1  0.00000000  0.55690000  0.72980000  1
  O  O65  1  0.50000000  0.05690000  0.22980000  1
  O  O66  1  0.00000000  0.94310000  0.72980000  1
  O  O67  1  0.50000000  0.44310000  0.22980000  1
  O  O68  1  0.00000000  0.44310000  0.27020000  1
  O  O69  1  0.50000000  0.94310000  0.77020000  1
  O  O70  1  0.00000000  0.05690000  0.27020000  1
  O  O71  1  0.50000000  0.55690000  0.77020000  1
  O  O72  1  0.00000000  0.75000000  0.77490000  1
  O  O73  1  0.50000000  0.25000000  0.27490000  1
  O  O74  1  0.00000000  0.25000000  0.22510000  1
  O  O75  1  0.50000000  0.75000000  0.72510000  1
  O  O76  1  0.12830000  0.90590000  0.47290000  1
  O  O77  1  0.62830000  0.40590000  0.97290000  1
  O  O78  1  0.87170000  0.90590000  0.47290000  1
  O  O79  1  0.37170000  0.40590000  0.97290000  1
  O  O80  1  0.12830000  0.59410000  0.47290000  1
  O  O81  1  0.62830000  0.09410000  0.97290000  1
  O  O82  1  0.87170000  0.59410000  0.47290000  1
  O  O83  1  0.37170000  0.09410000  0.97290000  1
  O  O84  1  0.87170000  0.09410000  0.52710000  1
  O  O85  1  0.37170000  0.59410000  0.02710000  1
  O  O86  1  0.12830000  0.09410000  0.52710000  1
  O  O87  1  0.62830000  0.59410000  0.02710000  1
  O  O88  1  0.87170000  0.40590000  0.52710000  1
  O  O89  1  0.37170000  0.90590000  0.02710000  1
  O  O90  1  0.12830000  0.40590000  0.52710000  1
  O  O91  1  0.62830000  0.90590000  0.02710000  1
  O  O92  1  0.00000000  0.75000000  0.41790000  1
  O  O93  1  0.50000000  0.25000000  0.91790000  1
  O  O94  1  0.00000000  0.25000000  0.58210000  1
  O  O95  1  0.50000000  0.75000000  0.08210000  1
