# generated using pymatgen
data_SiO4
_symmetry_space_group_name_H-M   'P 1'
_cell_length_a   13.68061000
_cell_length_b   13.68061000
_cell_length_c   44.16007000
_cell_angle_alpha   90.00000000
_cell_angle_beta   90.00000000
_cell_angle_gamma   120.00000000
_symmetry_Int_Tables_number   1
_chemical_formula_structural   SiO4
_chemical_formula_sum   'Si1 O4'
_cell_volume   7157.66403461
_cell_formula_units_Z   1
loop_
 _symmetry_equiv_pos_site_id
 _symmetry_equiv_pos_as_xyz
  1  'x, y, z'
loop_
 _atom_site_type_symbol
 _atom_site_label
 _atom_site_symmetry_multiplicity
 _atom_site_fract_x
 _atom_site_fract_y
 _atom_site_fract_z
 _atom_site_occupancy
  Si  Si0  1  0.89194667  0.55892333  0.07598333  1
  O  O1  1  0.92211667  0.58875333  0.11122333  1
  O  O2  1  0.90886667  0.45443333  0.06682333  1
  O  O3  1  0.76292667  0.52585333  0.07000333  1
  O  O4  1  0.97462667  0.66707333  0.05578333  1
