# generated using pymatgen
data_SiO4
_symmetry_space_group_name_H-M   'P 1'
_cell_length_a   13.68061000
_cell_length_b   13.68061000
_cell_length_c   44.16007000
_cell_angle_alpha   90.00000000
_cell_angle_beta   90.00000000
_cell_angle_gamma   120.00000000
_symmetry_Int_Tables_number   1
_chemical_formula_structural   SiO4
_chemical_formula_sum   'Si1 O4'
_cell_volume   7157.66403461
_cell_formula_units_Z   1
loop_
 _symmetry_equiv_pos_site_id
 _symmetry_equiv_pos_as_xyz
  1  'x, y, z'
loop_
 _atom_site_type_symbol
 _atom_site_label
 _atom_site_symmetry_multiplicity
 _atom_site_fract_x
 _atom_site_fract_y
 _atom_site_fract_z
 _atom_site_occupancy
  Si  Si0  1  0.33298333  0.89237667  0.70172667  1
  O  O1  1  0.30796000  0.97422000  0.72245000  1
  O  O2  1  0.33333333  0.92462667  0.66666667  1
  O  O3  1  0.45428333  0.90856667  0.71064667  1
  O  O4  1  0.23686333  0.76313667  0.70730667  1
