# generated using pymatgen
data_O2
_symmetry_space_group_name_H-M   'P 1'
_cell_length_a   13.68061000
_cell_length_b   13.68061000
_cell_length_c   44.16007000
_cell_angle_alpha   90.00000000
_cell_angle_beta   90.00000000
_cell_angle_gamma   120.00000000
_symmetry_Int_Tables_number   1
_chemical_formula_structural   O2
_chemical_formula_sum   O216
_cell_volume   7157.66403461
_cell_formula_units_Z   108
loop_
 _symmetry_equiv_pos_site_id
 _symmetry_equiv_pos_as_xyz
  1  'x, y, z'
loop_
 _atom_site_type_symbol
 _atom_site_label
 _atom_site_symmetry_multiplicity
 _atom_site_fract_x
 _atom_site_fract_y
 _atom_site_fract_z
 _atom_site_occupancy
  O  O0  1  0.00003000  0.25545000  0.22211000  1
  O  O1  1  0.74455000  0.74458000  0.22211000  1
  O  O2  1  0.25542000  0.99997000  0.22211000  1
  O  O3  1  0.74455000  0.99997000  0.22211000  1
  O  O4  1  0.00003000  0.74458000  0.22211000  1
  O  O5  1  0.25542000  0.25545000  0.22211000  1
  O  O6  1  0.99997000  0.74455000  0.77789000  1
  O  O7  1  0.25545000  0.25542000  0.77789000  1
  O  O8  1  0.74458000  0.00003000  0.77789000  1
  O  O9  1  0.25545000  0.00003000  0.77789000  1
  O  O10  1  0.99997000  0.25542000  0.77789000  1
  O  O11  1  0.74458000  0.74455000  0.77789000  1
  O  O12  1  0.33336333  0.92211667  0.88877667  1
  O  O13  1  0.07788333  0.41124667  0.88877667  1
  O  O14  1  0.58875333  0.66663667  0.88877667  1
  O  O15  1  0.07788333  0.66663667  0.88877667  1
  O  O16  1  0.33336333  0.41124667  0.88877667  1
  O  O17  1  0.58875333  0.92211667  0.88877667  1
  O  O18  1  0.33330333  0.41121667  0.44455667  1
  O  O19  1  0.58878333  0.92208667  0.44455667  1
  O  O20  1  0.07791333  0.66669667  0.44455667  1
  O  O21  1  0.58878333  0.66669667  0.44455667  1
  O  O22  1  0.33330333  0.92208667  0.44455667  1
  O  O23  1  0.07791333  0.41121667  0.44455667  1
  O  O24  1  0.66669667  0.58878333  0.55544333  1
  O  O25  1  0.41121667  0.07791333  0.55544333  1
  O  O26  1  0.92208667  0.33330333  0.55544333  1
  O  O27  1  0.41121667  0.33330333  0.55544333  1
  O  O28  1  0.66669667  0.07791333  0.55544333  1
  O  O29  1  0.92208667  0.58878333  0.55544333  1
  O  O30  1  0.66663667  0.07788333  0.11122333  1
  O  O31  1  0.92211667  0.58875333  0.11122333  1
  O  O32  1  0.41124667  0.33336333  0.11122333  1
  O  O33  1  0.92211667  0.33336333  0.11122333  1
  O  O34  1  0.66663667  0.58875333  0.11122333  1
  O  O35  1  0.41124667  0.07788333  0.11122333  1
  O  O36  1  0.12110000  0.24220000  0.26651000  1
  O  O37  1  0.75780000  0.87890000  0.26651000  1
  O  O38  1  0.12110000  0.87890000  0.26651000  1
  O  O39  1  0.87890000  0.75780000  0.73349000  1
  O  O40  1  0.24220000  0.12110000  0.73349000  1
  O  O41  1  0.87890000  0.12110000  0.73349000  1
  O  O42  1  0.45443333  0.90886667  0.93317667  1
  O  O43  1  0.09113333  0.54556667  0.93317667  1
  O  O44  1  0.45443333  0.54556667  0.93317667  1
  O  O45  1  0.21223333  0.42446667  0.40015667  1
  O  O46  1  0.57553333  0.78776667  0.40015667  1
  O  O47  1  0.21223333  0.78776667  0.40015667  1
  O  O48  1  0.78776667  0.57553333  0.59984333  1
  O  O49  1  0.42446667  0.21223333  0.59984333  1
  O  O50  1  0.78776667  0.21223333  0.59984333  1
  O  O51  1  0.54556667  0.09113333  0.06682333  1
  O  O52  1  0.90886667  0.45443333  0.06682333  1
  O  O53  1  0.54556667  0.45443333  0.06682333  1
  O  O54  1  0.90374000  0.09626000  0.26333000  1
  O  O55  1  0.90374000  0.80748000  0.26333000  1
  O  O56  1  0.19252000  0.09626000  0.26333000  1
  O  O57  1  0.09626000  0.90374000  0.73667000  1
  O  O58  1  0.09626000  0.19252000  0.73667000  1
  O  O59  1  0.80748000  0.90374000  0.73667000  1
  O  O60  1  0.23707333  0.76292667  0.92999667  1
  O  O61  1  0.23707333  0.47414667  0.92999667  1
  O  O62  1  0.52585333  0.76292667  0.92999667  1
  O  O63  1  0.42959333  0.57040667  0.40333667  1
  O  O64  1  0.42959333  0.85918667  0.40333667  1
  O  O65  1  0.14081333  0.57040667  0.40333667  1
  O  O66  1  0.57040667  0.42959333  0.59666333  1
  O  O67  1  0.57040667  0.14081333  0.59666333  1
  O  O68  1  0.85918667  0.42959333  0.59666333  1
  O  O69  1  0.76292667  0.23707333  0.07000333  1
  O  O70  1  0.76292667  0.52585333  0.07000333  1
  O  O71  1  0.47414667  0.23707333  0.07000333  1
  O  O72  1  0.97422000  0.30796000  0.27755000  1
  O  O73  1  0.69204000  0.66626000  0.27755000  1
  O  O74  1  0.33374000  0.02578000  0.27755000  1
  O  O75  1  0.69204000  0.02578000  0.27755000  1
  O  O76  1  0.97422000  0.66626000  0.27755000  1
  O  O77  1  0.33374000  0.30796000  0.27755000  1
  O  O78  1  0.02578000  0.69204000  0.72245000  1
  O  O79  1  0.30796000  0.33374000  0.72245000  1
  O  O80  1  0.66626000  0.97422000  0.72245000  1
  O  O81  1  0.30796000  0.97422000  0.72245000  1
  O  O82  1  0.02578000  0.33374000  0.72245000  1
  O  O83  1  0.66626000  0.69204000  0.72245000  1
  O  O84  1  0.30755333  0.97462667  0.94421667  1
  O  O85  1  0.02537333  0.33292667  0.94421667  1
  O  O86  1  0.66707333  0.69244667  0.94421667  1
  O  O87  1  0.02537333  0.69244667  0.94421667  1
  O  O88  1  0.30755333  0.33292667  0.94421667  1
  O  O89  1  0.66707333  0.97462667  0.94421667  1
  O  O90  1  0.35911333  0.35870667  0.38911667  1
  O  O91  1  0.64129333  0.00040667  0.38911667  1
  O  O92  1  0.99959333  0.64088667  0.38911667  1
  O  O93  1  0.64129333  0.64088667  0.38911667  1
  O  O94  1  0.35911333  0.00040667  0.38911667  1
  O  O95  1  0.99959333  0.35870667  0.38911667  1
  O  O96  1  0.64088667  0.64129333  0.61088333  1
  O  O97  1  0.35870667  0.99959333  0.61088333  1
  O  O98  1  0.00040667  0.35911333  0.61088333  1
  O  O99  1  0.35870667  0.35911333  0.61088333  1
  O  O100  1  0.64088667  0.99959333  0.61088333  1
  O  O101  1  0.00040667  0.64129333  0.61088333  1
  O  O102  1  0.69244667  0.02537333  0.05578333  1
  O  O103  1  0.97462667  0.66707333  0.05578333  1
  O  O104  1  0.33292667  0.30755333  0.05578333  1
  O  O105  1  0.97462667  0.30755333  0.05578333  1
  O  O106  1  0.69244667  0.66707333  0.05578333  1
  O  O107  1  0.33292667  0.02537333  0.05578333  1
  O  O108  1  0.90191000  0.09809000  0.18042000  1
  O  O109  1  0.90191000  0.80382000  0.18042000  1
  O  O110  1  0.19618000  0.09809000  0.18042000  1
  O  O111  1  0.09809000  0.90191000  0.81958000  1
  O  O112  1  0.09809000  0.19618000  0.81958000  1
  O  O113  1  0.80382000  0.90191000  0.81958000  1
  O  O114  1  0.23524333  0.76475667  0.84708667  1
  O  O115  1  0.23524333  0.47048667  0.84708667  1
  O  O116  1  0.52951333  0.76475667  0.84708667  1
  O  O117  1  0.43142333  0.56857667  0.48624667  1
  O  O118  1  0.43142333  0.86284667  0.48624667  1
  O  O119  1  0.13715333  0.56857667  0.48624667  1
  O  O120  1  0.56857667  0.43142333  0.51375333  1
  O  O121  1  0.56857667  0.13715333  0.51375333  1
  O  O122  1  0.86284667  0.43142333  0.51375333  1
  O  O123  1  0.76475667  0.23524333  0.15291333  1
  O  O124  1  0.76475667  0.52951333  0.15291333  1
  O  O125  1  0.47048667  0.23524333  0.15291333  1
  O  O126  1  0.97795000  0.31128000  0.16667000  1
  O  O127  1  0.68872000  0.66667000  0.16667000  1
  O  O128  1  0.33333000  0.02205000  0.16667000  1
  O  O129  1  0.68872000  0.02205000  0.16667000  1
  O  O130  1  0.97795000  0.66667000  0.16667000  1
  O  O131  1  0.33333000  0.31128000  0.16667000  1
  O  O132  1  0.02205000  0.68872000  0.83333000  1
  O  O133  1  0.31128000  0.33333000  0.83333000  1
  O  O134  1  0.66667000  0.97795000  0.83333000  1
  O  O135  1  0.31128000  0.97795000  0.83333000  1
  O  O136  1  0.02205000  0.33333000  0.83333000  1
  O  O137  1  0.66667000  0.68872000  0.83333000  1
  O  O138  1  0.35538333  0.35538667  0.49999667  1
  O  O139  1  0.64461333  0.99999667  0.49999667  1
  O  O140  1  0.00000333  0.64461667  0.49999667  1
  O  O141  1  0.64461333  0.64461667  0.49999667  1
  O  O142  1  0.35538333  0.99999667  0.49999667  1
  O  O143  1  0.00000333  0.35538667  0.49999667  1
  O  O144  1  0.12008000  0.24016000  0.17774000  1
  O  O145  1  0.75984000  0.87992000  0.17774000  1
  O  O146  1  0.12008000  0.87992000  0.17774000  1
  O  O147  1  0.87992000  0.75984000  0.82226000  1
  O  O148  1  0.24016000  0.12008000  0.82226000  1
  O  O149  1  0.87992000  0.12008000  0.82226000  1
  O  O150  1  0.45341333  0.90682667  0.84440667  1
  O  O151  1  0.09317333  0.54658667  0.84440667  1
  O  O152  1  0.45341333  0.54658667  0.84440667  1
  O  O153  1  0.21325333  0.42650667  0.48892667  1
  O  O154  1  0.57349333  0.78674667  0.48892667  1
  O  O155  1  0.21325333  0.78674667  0.48892667  1
  O  O156  1  0.78674667  0.57349333  0.51107333  1
  O  O157  1  0.42650667  0.21325333  0.51107333  1
  O  O158  1  0.78674667  0.21325333  0.51107333  1
  O  O159  1  0.54658667  0.09317333  0.15559333  1
  O  O160  1  0.90682667  0.45341333  0.15559333  1
  O  O161  1  0.54658667  0.45341333  0.15559333  1
  O  O162  1  0.00000000  0.25796000  0.00000000  1
  O  O163  1  0.74204000  0.74204000  0.00000000  1
  O  O164  1  0.25796000  0.00000000  0.00000000  1
  O  O165  1  0.74204000  0.00000000  0.00000000  1
  O  O166  1  0.00000000  0.74204000  0.00000000  1
  O  O167  1  0.25796000  0.25796000  0.00000000  1
  O  O168  1  0.33333333  0.92462667  0.66666667  1
  O  O169  1  0.07537333  0.40870667  0.66666667  1
  O  O170  1  0.59129333  0.66666667  0.66666667  1
  O  O171  1  0.07537333  0.66666667  0.66666667  1
  O  O172  1  0.33333333  0.40870667  0.66666667  1
  O  O173  1  0.59129333  0.92462667  0.66666667  1
  O  O174  1  0.66666667  0.59129333  0.33333333  1
  O  O175  1  0.40870667  0.07537333  0.33333333  1
  O  O176  1  0.92462667  0.33333333  0.33333333  1
  O  O177  1  0.40870667  0.33333333  0.33333333  1
  O  O178  1  0.66666667  0.07537333  0.33333333  1
  O  O179  1  0.92462667  0.59129333  0.33333333  1
  O  O180  1  0.12095000  0.24190000  0.04398000  1
  O  O181  1  0.75810000  0.87905000  0.04398000  1
  O  O182  1  0.12095000  0.87905000  0.04398000  1
  O  O183  1  0.87905000  0.75810000  0.95602000  1
  O  O184  1  0.24190000  0.12095000  0.95602000  1
  O  O185  1  0.87905000  0.12095000  0.95602000  1
  O  O186  1  0.45428333  0.90856667  0.71064667  1
  O  O187  1  0.09143333  0.54571667  0.71064667  1
  O  O188  1  0.45428333  0.54571667  0.71064667  1
  O  O189  1  0.21238333  0.42476667  0.62268667  1
  O  O190  1  0.57523333  0.78761667  0.62268667  1
  O  O191  1  0.21238333  0.78761667  0.62268667  1
  O  O192  1  0.78761667  0.57523333  0.37731333  1
  O  O193  1  0.42476667  0.21238333  0.37731333  1
  O  O194  1  0.78761667  0.21238333  0.37731333  1
  O  O195  1  0.54571667  0.09143333  0.28935333  1
  O  O196  1  0.90856667  0.45428333  0.28935333  1
  O  O197  1  0.54571667  0.45428333  0.28935333  1
  O  O198  1  0.90353000  0.09647000  0.04064000  1
  O  O199  1  0.90353000  0.80706000  0.04064000  1
  O  O200  1  0.19294000  0.09647000  0.04064000  1
  O  O201  1  0.09647000  0.90353000  0.95936000  1
  O  O202  1  0.09647000  0.19294000  0.95936000  1
  O  O203  1  0.80706000  0.90353000  0.95936000  1
  O  O204  1  0.23686333  0.76313667  0.70730667  1
  O  O205  1  0.23686333  0.47372667  0.70730667  1
  O  O206  1  0.52627333  0.76313667  0.70730667  1
  O  O207  1  0.42980333  0.57019667  0.62602667  1
  O  O208  1  0.42980333  0.85960667  0.62602667  1
  O  O209  1  0.14039333  0.57019667  0.62602667  1
  O  O210  1  0.57019667  0.42980333  0.37397333  1
  O  O211  1  0.57019667  0.14039333  0.37397333  1
  O  O212  1  0.85960667  0.42980333  0.37397333  1
  O  O213  1  0.76313667  0.23686333  0.29269333  1
  O  O214  1  0.76313667  0.52627333  0.29269333  1
  O  O215  1  0.47372667  0.23686333  0.29269333  1
