# generated using pymatgen
data_Si
_symmetry_space_group_name_H-M   'P 1'
_cell_length_a   13.68061000
_cell_length_b   13.68061000
_cell_length_c   44.16007000
_cell_angle_alpha   90.00000000
_cell_angle_beta   90.00000000
_cell_angle_gamma   120.00000000
_symmetry_Int_Tables_number   1
_chemical_formula_structural   Si
_chemical_formula_sum   Si108
_cell_volume   7157.66403461
_cell_formula_units_Z   108
loop_
 _symmetry_equiv_pos_site_id
 _symmetry_equiv_pos_as_xyz
  1  'x, y, z'
loop_
 _atom_site_type_symbol
 _atom_site_label
 _atom_site_symmetry_multiplicity
 _atom_site_fract_x
 _atom_site_fract_y
 _atom_site_fract_z
 _atom_site_occupancy
  Si  Si0  1  0.99969000  0.22528000  0.25735000  1
  Si  Si1  1  0.77472000  0.77441000  0.25735000  1
  Si  Si2  1  0.22559000  0.00031000  0.25735000  1
  Si  Si3  1  0.77472000  0.00031000  0.25735000  1
  Si  Si4  1  0.99969000  0.77441000  0.25735000  1
  Si  Si5  1  0.22559000  0.22528000  0.25735000  1
  Si  Si6  1  0.00031000  0.77472000  0.74265000  1
  Si  Si7  1  0.22528000  0.22559000  0.74265000  1
  Si  Si8  1  0.77441000  0.99969000  0.74265000  1
  Si  Si9  1  0.22528000  0.99969000  0.74265000  1
  Si  Si10  1  0.00031000  0.22559000  0.74265000  1
  Si  Si11  1  0.77441000  0.77472000  0.74265000  1
  Si  Si12  1  0.33302333  0.89194667  0.92401667  1
  Si  Si13  1  0.10805333  0.44107667  0.92401667  1
  Si  Si14  1  0.55892333  0.66697667  0.92401667  1
  Si  Si15  1  0.10805333  0.66697667  0.92401667  1
  Si  Si16  1  0.33302333  0.44107667  0.92401667  1
  Si  Si17  1  0.55892333  0.89194667  0.92401667  1
  Si  Si18  1  0.33364333  0.44138667  0.40931667  1
  Si  Si19  1  0.55861333  0.89225667  0.40931667  1
  Si  Si20  1  0.10774333  0.66635667  0.40931667  1
  Si  Si21  1  0.55861333  0.66635667  0.40931667  1
  Si  Si22  1  0.33364333  0.89225667  0.40931667  1
  Si  Si23  1  0.10774333  0.44138667  0.40931667  1
  Si  Si24  1  0.66635667  0.55861333  0.59068333  1
  Si  Si25  1  0.44138667  0.10774333  0.59068333  1
  Si  Si26  1  0.89225667  0.33364333  0.59068333  1
  Si  Si27  1  0.44138667  0.33364333  0.59068333  1
  Si  Si28  1  0.66635667  0.10774333  0.59068333  1
  Si  Si29  1  0.89225667  0.55861333  0.59068333  1
  Si  Si30  1  0.66697667  0.10805333  0.07598333  1
  Si  Si31  1  0.89194667  0.55892333  0.07598333  1
  Si  Si32  1  0.44107667  0.33302333  0.07598333  1
  Si  Si33  1  0.89194667  0.33302333  0.07598333  1
  Si  Si34  1  0.66697667  0.55892333  0.07598333  1
  Si  Si35  1  0.44107667  0.10805333  0.07598333  1
  Si  Si36  1  0.99972000  0.22597000  0.18682000  1
  Si  Si37  1  0.77403000  0.77375000  0.18682000  1
  Si  Si38  1  0.22625000  0.00028000  0.18682000  1
  Si  Si39  1  0.77403000  0.00028000  0.18682000  1
  Si  Si40  1  0.99972000  0.77375000  0.18682000  1
  Si  Si41  1  0.22625000  0.22597000  0.18682000  1
  Si  Si42  1  0.00028000  0.77403000  0.81318000  1
  Si  Si43  1  0.22597000  0.22625000  0.81318000  1
  Si  Si44  1  0.77375000  0.99972000  0.81318000  1
  Si  Si45  1  0.22597000  0.99972000  0.81318000  1
  Si  Si46  1  0.00028000  0.22625000  0.81318000  1
  Si  Si47  1  0.77375000  0.77403000  0.81318000  1
  Si  Si48  1  0.33305333  0.89263667  0.85348667  1
  Si  Si49  1  0.10736333  0.44041667  0.85348667  1
  Si  Si50  1  0.55958333  0.66694667  0.85348667  1
  Si  Si51  1  0.10736333  0.66694667  0.85348667  1
  Si  Si52  1  0.33305333  0.44041667  0.85348667  1
  Si  Si53  1  0.55958333  0.89263667  0.85348667  1
  Si  Si54  1  0.33361333  0.44069667  0.47984667  1
  Si  Si55  1  0.55930333  0.89291667  0.47984667  1
  Si  Si56  1  0.10708333  0.66638667  0.47984667  1
  Si  Si57  1  0.55930333  0.66638667  0.47984667  1
  Si  Si58  1  0.33361333  0.89291667  0.47984667  1
  Si  Si59  1  0.10708333  0.44069667  0.47984667  1
  Si  Si60  1  0.66638667  0.55930333  0.52015333  1
  Si  Si61  1  0.44069667  0.10708333  0.52015333  1
  Si  Si62  1  0.89291667  0.33361333  0.52015333  1
  Si  Si63  1  0.44069667  0.33361333  0.52015333  1
  Si  Si64  1  0.66638667  0.10708333  0.52015333  1
  Si  Si65  1  0.89291667  0.55930333  0.52015333  1
  Si  Si66  1  0.66694667  0.10736333  0.14651333  1
  Si  Si67  1  0.89263667  0.55958333  0.14651333  1
  Si  Si68  1  0.44041667  0.33305333  0.14651333  1
  Si  Si69  1  0.89263667  0.33305333  0.14651333  1
  Si  Si70  1  0.66694667  0.55958333  0.14651333  1
  Si  Si71  1  0.44041667  0.10736333  0.14651333  1
  Si  Si72  1  0.99965000  0.22571000  0.03506000  1
  Si  Si73  1  0.77429000  0.77394000  0.03506000  1
  Si  Si74  1  0.22606000  0.00035000  0.03506000  1
  Si  Si75  1  0.77429000  0.00035000  0.03506000  1
  Si  Si76  1  0.99965000  0.77394000  0.03506000  1
  Si  Si77  1  0.22606000  0.22571000  0.03506000  1
  Si  Si78  1  0.00035000  0.77429000  0.96494000  1
  Si  Si79  1  0.22571000  0.22606000  0.96494000  1
  Si  Si80  1  0.77394000  0.99965000  0.96494000  1
  Si  Si81  1  0.22571000  0.99965000  0.96494000  1
  Si  Si82  1  0.00035000  0.22606000  0.96494000  1
  Si  Si83  1  0.77394000  0.77429000  0.96494000  1
  Si  Si84  1  0.33298333  0.89237667  0.70172667  1
  Si  Si85  1  0.10762333  0.44060667  0.70172667  1
  Si  Si86  1  0.55939333  0.66701667  0.70172667  1
  Si  Si87  1  0.10762333  0.66701667  0.70172667  1
  Si  Si88  1  0.33298333  0.44060667  0.70172667  1
  Si  Si89  1  0.55939333  0.89237667  0.70172667  1
  Si  Si90  1  0.33368333  0.44095667  0.63160667  1
  Si  Si91  1  0.55904333  0.89272667  0.63160667  1
  Si  Si92  1  0.10727333  0.66631667  0.63160667  1
  Si  Si93  1  0.55904333  0.66631667  0.63160667  1
  Si  Si94  1  0.33368333  0.89272667  0.63160667  1
  Si  Si95  1  0.10727333  0.44095667  0.63160667  1
  Si  Si96  1  0.66631667  0.55904333  0.36839333  1
  Si  Si97  1  0.44095667  0.10727333  0.36839333  1
  Si  Si98  1  0.89272667  0.33368333  0.36839333  1
  Si  Si99  1  0.44095667  0.33368333  0.36839333  1
  Si  Si100  1  0.66631667  0.10727333  0.36839333  1
  Si  Si101  1  0.89272667  0.55904333  0.36839333  1
  Si  Si102  1  0.66701667  0.10762333  0.29827333  1
  Si  Si103  1  0.89237667  0.55939333  0.29827333  1
  Si  Si104  1  0.44060667  0.33298333  0.29827333  1
  Si  Si105  1  0.89237667  0.33298333  0.29827333  1
  Si  Si106  1  0.66701667  0.55939333  0.29827333  1
  Si  Si107  1  0.44060667  0.10762333  0.29827333  1
