# generated using pymatgen
data_SiO4
_symmetry_space_group_name_H-M   'P 1'
_cell_length_a   18.62800000
_cell_length_b   13.43600000
_cell_length_c   7.62900000
_cell_angle_alpha   90.00000000
_cell_angle_beta   102.32200000
_cell_angle_gamma   90.00000000
_symmetry_Int_Tables_number   1
_chemical_formula_structural   SiO4
_chemical_formula_sum   'Si1 O4'
_cell_volume   1865.44422585
_cell_formula_units_Z   1
loop_
 _symmetry_equiv_pos_site_id
 _symmetry_equiv_pos_as_xyz
  1  'x, y, z'
loop_
 _atom_site_type_symbol
 _atom_site_label
 _atom_site_symmetry_multiplicity
 _atom_site_fract_x
 _atom_site_fract_y
 _atom_site_fract_z
 _atom_site_occupancy
  Si  Si0  1  0.64880000  0.88570000  0.89810000  1
  O  O1  1  0.56090000  0.87430000  0.84180000  1
  O  O2  1  0.68000000  0.81660000  1.07000000  1
  O  O3  1  0.66950000  1.00000000  0.94880000  1
  O  O4  1  0.68500000  0.85280000  0.73340000  1
