# generated using pymatgen
data_SiO4
_symmetry_space_group_name_H-M   'P 1'
_cell_length_a   18.62800000
_cell_length_b   13.43600000
_cell_length_c   7.62900000
_cell_angle_alpha   90.00000000
_cell_angle_beta   102.32200000
_cell_angle_gamma   90.00000000
_symmetry_Int_Tables_number   1
_chemical_formula_structural   SiO4
_chemical_formula_sum   'Si1 O4'
_cell_volume   1865.44422585
_cell_formula_units_Z   1
loop_
 _symmetry_equiv_pos_site_id
 _symmetry_equiv_pos_as_xyz
  1  'x, y, z'
loop_
 _atom_site_type_symbol
 _atom_site_label
 _atom_site_symmetry_multiplicity
 _atom_site_fract_x
 _atom_site_fract_y
 _atom_site_fract_z
 _atom_site_occupancy
  Si  Si0  1  0.83750000  0.29700000  0.73510000  1
  O  O1  1  0.92370000  0.31520000  0.74450000  1
  O  O2  1  0.82000000  0.31660000  0.93000000  1
  O  O3  1  0.81640000  0.18410000  0.67480000  1
  O  O4  1  0.79000000  0.37230000  0.59140000  1
