# generated using pymatgen
data_Si
_symmetry_space_group_name_H-M   'P 1'
_cell_length_a   18.62800000
_cell_length_b   13.43600000
_cell_length_c   7.62900000
_cell_angle_alpha   90.00000000
_cell_angle_beta   102.32200000
_cell_angle_gamma   90.00000000
_symmetry_Int_Tables_number   1
_chemical_formula_structural   Si
_chemical_formula_sum   Si32
_cell_volume   1865.44422585
_cell_formula_units_Z   32
loop_
 _symmetry_equiv_pos_site_id
 _symmetry_equiv_pos_as_xyz
  1  'x, y, z'
loop_
 _atom_site_type_symbol
 _atom_site_label
 _atom_site_symmetry_multiplicity
 _atom_site_fract_x
 _atom_site_fract_y
 _atom_site_fract_z
 _atom_site_occupancy
  Si  Si0  1  0.83750000  0.70300000  0.73510000  1
  Si  Si1  1  0.33750000  0.20300000  0.73510000  1
  Si  Si2  1  0.16250000  0.70300000  0.26490000  1
  Si  Si3  1  0.66250000  0.20300000  0.26490000  1
  Si  Si4  1  0.16250000  0.29700000  0.26490000  1
  Si  Si5  1  0.66250000  0.79700000  0.26490000  1
  Si  Si6  1  0.83750000  0.29700000  0.73510000  1
  Si  Si7  1  0.33750000  0.79700000  0.73510000  1
  Si  Si8  1  0.98590000  0.61410000  0.69280000  1
  Si  Si9  1  0.48590000  0.11410000  0.69280000  1
  Si  Si10  1  0.01410000  0.61410000  0.30720000  1
  Si  Si11  1  0.51410000  0.11410000  0.30720000  1
  Si  Si12  1  0.01410000  0.38590000  0.30720000  1
  Si  Si13  1  0.51410000  0.88590000  0.30720000  1
  Si  Si14  1  0.98590000  0.38590000  0.69280000  1
  Si  Si15  1  0.48590000  0.88590000  0.69280000  1
  Si  Si16  1  0.14880000  0.61430000  0.89810000  1
  Si  Si17  1  0.64880000  0.11430000  0.89810000  1
  Si  Si18  1  0.85120000  0.61430000  0.10190000  1
  Si  Si19  1  0.35120000  0.11430000  0.10190000  1
  Si  Si20  1  0.85120000  0.38570000  0.10190000  1
  Si  Si21  1  0.35120000  0.88570000  0.10190000  1
  Si  Si22  1  0.14880000  0.38570000  0.89810000  1
  Si  Si23  1  0.64880000  0.88570000  0.89810000  1
  Si  Si24  1  0.75530000  0.61460000  0.38050000  1
  Si  Si25  1  0.25530000  0.11460000  0.38050000  1
  Si  Si26  1  0.24470000  0.61460000  0.61950000  1
  Si  Si27  1  0.74470000  0.11460000  0.61950000  1
  Si  Si28  1  0.24470000  0.38540000  0.61950000  1
  Si  Si29  1  0.74470000  0.88540000  0.61950000  1
  Si  Si30  1  0.75530000  0.38540000  0.38050000  1
  Si  Si31  1  0.25530000  0.88540000  0.38050000  1
