# generated using pymatgen
data_O2
_symmetry_space_group_name_H-M   'P 1'
_cell_length_a   18.62800000
_cell_length_b   13.43600000
_cell_length_c   7.62900000
_cell_angle_alpha   90.00000000
_cell_angle_beta   102.32200000
_cell_angle_gamma   90.00000000
_symmetry_Int_Tables_number   1
_chemical_formula_structural   O2
_chemical_formula_sum   O64
_cell_volume   1865.44422585
_cell_formula_units_Z   32
loop_
 _symmetry_equiv_pos_site_id
 _symmetry_equiv_pos_as_xyz
  1  'x, y, z'
loop_
 _atom_site_type_symbol
 _atom_site_label
 _atom_site_symmetry_multiplicity
 _atom_site_fract_x
 _atom_site_fract_y
 _atom_site_fract_z
 _atom_site_occupancy
  O  O0  1  0.06090000  0.62570000  0.84180000  1
  O  O1  1  0.56090000  0.12570000  0.84180000  1
  O  O2  1  0.93910000  0.62570000  0.15820000  1
  O  O3  1  0.43910000  0.12570000  0.15820000  1
  O  O4  1  0.93910000  0.37430000  0.15820000  1
  O  O5  1  0.43910000  0.87430000  0.15820000  1
  O  O6  1  0.06090000  0.37430000  0.84180000  1
  O  O7  1  0.56090000  0.87430000  0.84180000  1
  O  O8  1  0.95910000  0.50000000  0.68490000  1
  O  O9  1  0.45910000  0.00000000  0.68490000  1
  O  O10  1  0.04090000  0.50000000  0.31510000  1
  O  O11  1  0.54090000  0.00000000  0.31510000  1
  O  O12  1  0.92370000  0.68480000  0.74450000  1
  O  O13  1  0.42370000  0.18480000  0.74450000  1
  O  O14  1  0.07630000  0.68480000  0.25550000  1
  O  O15  1  0.57630000  0.18480000  0.25550000  1
  O  O16  1  0.07630000  0.31520000  0.25550000  1
  O  O17  1  0.57630000  0.81520000  0.25550000  1
  O  O18  1  0.92370000  0.31520000  0.74450000  1
  O  O19  1  0.42370000  0.81520000  0.74450000  1
  O  O20  1  0.00000000  0.64680000  0.50000000  1
  O  O21  1  0.50000000  0.14680000  0.50000000  1
  O  O22  1  0.00000000  0.35320000  0.50000000  1
  O  O23  1  0.50000000  0.85320000  0.50000000  1
  O  O24  1  0.18000000  0.68340000  0.07000000  1
  O  O25  1  0.68000000  0.18340000  0.07000000  1
  O  O26  1  0.82000000  0.68340000  0.93000000  1
  O  O27  1  0.32000000  0.18340000  0.93000000  1
  O  O28  1  0.82000000  0.31660000  0.93000000  1
  O  O29  1  0.32000000  0.81660000  0.93000000  1
  O  O30  1  0.18000000  0.31660000  0.07000000  1
  O  O31  1  0.68000000  0.81660000  0.07000000  1
  O  O32  1  0.16950000  0.50000000  0.94880000  1
  O  O33  1  0.66950000  0.00000000  0.94880000  1
  O  O34  1  0.83050000  0.50000000  0.05120000  1
  O  O35  1  0.33050000  0.00000000  0.05120000  1
  O  O36  1  0.18500000  0.64720000  0.73340000  1
  O  O37  1  0.68500000  0.14720000  0.73340000  1
  O  O38  1  0.81500000  0.64720000  0.26660000  1
  O  O39  1  0.31500000  0.14720000  0.26660000  1
  O  O40  1  0.81500000  0.35280000  0.26660000  1
  O  O41  1  0.31500000  0.85280000  0.26660000  1
  O  O42  1  0.18500000  0.35280000  0.73340000  1
  O  O43  1  0.68500000  0.85280000  0.73340000  1
  O  O44  1  0.68360000  0.68410000  0.32520000  1
  O  O45  1  0.18360000  0.18410000  0.32520000  1
  O  O46  1  0.31640000  0.68410000  0.67480000  1
  O  O47  1  0.81640000  0.18410000  0.67480000  1
  O  O48  1  0.31640000  0.31590000  0.67480000  1
  O  O49  1  0.81640000  0.81590000  0.67480000  1
  O  O50  1  0.68360000  0.31590000  0.32520000  1
  O  O51  1  0.18360000  0.81590000  0.32520000  1
  O  O52  1  0.79000000  0.62770000  0.59140000  1
  O  O53  1  0.29000000  0.12770000  0.59140000  1
  O  O54  1  0.21000000  0.62770000  0.40860000  1
  O  O55  1  0.71000000  0.12770000  0.40860000  1
  O  O56  1  0.21000000  0.37230000  0.40860000  1
  O  O57  1  0.71000000  0.87230000  0.40860000  1
  O  O58  1  0.79000000  0.37230000  0.59140000  1
  O  O59  1  0.29000000  0.87230000  0.59140000  1
  O  O60  1  0.73280000  0.50000000  0.33880000  1
  O  O61  1  0.23280000  0.00000000  0.33880000  1
  O  O62  1  0.26720000  0.50000000  0.66120000  1
  O  O63  1  0.76720000  0.00000000  0.66120000  1
