# generated using pymatgen
data_Si
_symmetry_space_group_name_H-M   'P 1'
_cell_length_a   9.98000000
_cell_length_b   7.51400000
_cell_length_c   9.36900000
_cell_angle_alpha   90.00000000
_cell_angle_beta   90.00000000
_cell_angle_gamma   90.00000000
_symmetry_Int_Tables_number   1
_chemical_formula_structural   Si
_chemical_formula_sum   Si12
_cell_volume   702.57868668
_cell_formula_units_Z   12
loop_
 _symmetry_equiv_pos_site_id
 _symmetry_equiv_pos_as_xyz
  1  'x, y, z'
loop_
 _atom_site_type_symbol
 _atom_site_label
 _atom_site_symmetry_multiplicity
 _atom_site_fract_x
 _atom_site_fract_y
 _atom_site_fract_z
 _atom_site_occupancy
  Si  Si0  1  0.09570000  0.20570000  0.37150000  1
  Si  Si1  1  0.40430000  0.20570000  0.37150000  1
  Si  Si2  1  0.09570000  0.79430000  0.37150000  1
  Si  Si3  1  0.40430000  0.79430000  0.37150000  1
  Si  Si4  1  0.90430000  0.79430000  0.62850000  1
  Si  Si5  1  0.59570000  0.79430000  0.62850000  1
  Si  Si6  1  0.90430000  0.20570000  0.62850000  1
  Si  Si7  1  0.59570000  0.20570000  0.62850000  1
  Si  Si8  1  0.09570000  0.50000000  0.13800000  1
  Si  Si9  1  0.40430000  0.50000000  0.13800000  1
  Si  Si10  1  0.90430000  0.50000000  0.86200000  1
  Si  Si11  1  0.59570000  0.50000000  0.86200000  1
