# generated using pymatgen
data_SiO4
_symmetry_space_group_name_H-M   'P 1'
_cell_length_a   8.20650000
_cell_length_b   14.13640000
_cell_length_c   15.40456000
_cell_angle_alpha   90.00000000
_cell_angle_beta   119.27000000
_cell_angle_gamma   90.00000000
_symmetry_Int_Tables_number   1
_chemical_formula_structural   SiO4
_chemical_formula_sum   'Si1 O4'
_cell_volume   1558.92281135
_cell_formula_units_Z   1
loop_
 _symmetry_equiv_pos_site_id
 _symmetry_equiv_pos_as_xyz
  1  'x, y, z'
loop_
 _atom_site_type_symbol
 _atom_site_label
 _atom_site_symmetry_multiplicity
 _atom_site_fract_x
 _atom_site_fract_y
 _atom_site_fract_z
 _atom_site_occupancy
  Si  Si0  1  0.70514000  0.00419000  0.80589000  1
  O  O1  1  0.83293000  0.09720000  0.85118000  1
  O  O2  1  0.80314000  -0.07200000  0.76862000  1
  O  O3  1  0.66475000  -0.03950000  0.89012000  1
  O  O4  1  0.51249000  0.03671000  0.71048000  1
