# generated using pymatgen
data_SiO4
_symmetry_space_group_name_H-M   'P 1'
_cell_length_a   8.20650000
_cell_length_b   14.13640000
_cell_length_c   15.40456000
_cell_angle_alpha   90.00000000
_cell_angle_beta   119.27000000
_cell_angle_gamma   90.00000000
_symmetry_Int_Tables_number   1
_chemical_formula_structural   SiO4
_chemical_formula_sum   'Si1 O4'
_cell_volume   1558.92281135
_cell_formula_units_Z   1
loop_
 _symmetry_equiv_pos_site_id
 _symmetry_equiv_pos_as_xyz
  1  'x, y, z'
loop_
 _atom_site_type_symbol
 _atom_site_label
 _atom_site_symmetry_multiplicity
 _atom_site_fract_x
 _atom_site_fract_y
 _atom_site_fract_z
 _atom_site_occupancy
  Si  Si0  1  0.21266000  0.69489000  0.61103000  1
  O  O1  1  0.16707000  0.59720000  0.64882000  1
  O  O2  1  0.36308000  0.67368000  0.57491000  1
  O  O3  1  0.02380000  0.74200000  0.52535000  1
  O  O4  1  0.30229000  0.76934000  0.70178000  1
