# generated using pymatgen
data_O2
_symmetry_space_group_name_H-M   'P 1'
_cell_length_a   8.20650000
_cell_length_b   14.13640000
_cell_length_c   15.40456000
_cell_angle_alpha   90.00000000
_cell_angle_beta   119.27000000
_cell_angle_gamma   90.00000000
_symmetry_Int_Tables_number   1
_chemical_formula_structural   O2
_chemical_formula_sum   O64
_cell_volume   1558.92281135
_cell_formula_units_Z   32
loop_
 _symmetry_equiv_pos_site_id
 _symmetry_equiv_pos_as_xyz
  1  'x, y, z'
loop_
 _atom_site_type_symbol
 _atom_site_label
 _atom_site_symmetry_multiplicity
 _atom_site_fract_x
 _atom_site_fract_y
 _atom_site_fract_z
 _atom_site_occupancy
  O  O0  1  0.16707000  0.59720000  0.64882000  1
  O  O1  1  0.83293000  0.09720000  0.85118000  1
  O  O2  1  0.83293000  0.40280000  0.35118000  1
  O  O3  1  0.16707000  0.90280000  0.14882000  1
  O  O4  1  0.36308000  0.67368000  0.57491000  1
  O  O5  1  0.63692000  0.17368000  0.92509000  1
  O  O6  1  0.63692000  0.32632000  0.42509000  1
  O  O7  1  0.36308000  0.82632000  0.07491000  1
  O  O8  1  0.02380000  0.74200000  0.52535000  1
  O  O9  1  0.97620000  0.24200000  0.97465000  1
  O  O10  1  0.97620000  0.25800000  0.47465000  1
  O  O11  1  0.02380000  0.75800000  0.02535000  1
  O  O12  1  0.35621000  0.62722000  0.35370000  1
  O  O13  1  0.64379000  0.12722000  0.14630000  1
  O  O14  1  0.64379000  0.37278000  0.64630000  1
  O  O15  1  0.35621000  0.87278000  0.85370000  1
  O  O16  1  0.30229000  0.76934000  0.70178000  1
  O  O17  1  0.69771000  0.26934000  0.79822000  1
  O  O18  1  0.69771000  0.23066000  0.29822000  1
  O  O19  1  0.30229000  0.73066000  0.20178000  1
  O  O20  1  0.66430000  0.72200000  0.14709000  1
  O  O21  1  0.33570000  0.22200000  0.35291000  1
  O  O22  1  0.33570000  0.27800000  0.85291000  1
  O  O23  1  0.66430000  0.77800000  0.64709000  1
  O  O24  1  0.80314000  0.57200000  0.26862000  1
  O  O25  1  0.19686000  0.07200000  0.23138000  1
  O  O26  1  0.19686000  0.42800000  0.73138000  1
  O  O27  1  0.80314000  0.92800000  0.76862000  1
  O  O28  1  0.81759000  0.88611000  0.41018000  1
  O  O29  1  0.18241000  0.38611000  0.08982000  1
  O  O30  1  0.18241000  0.11389000  0.58982000  1
  O  O31  1  0.81759000  0.61389000  0.91018000  1
  O  O32  1  0.66475000  0.53950000  0.39012000  1
  O  O33  1  0.33525000  0.03950000  0.10988000  1
  O  O34  1  0.33525000  0.46050000  0.60988000  1
  O  O35  1  0.66475000  0.96050000  0.89012000  1
  O  O36  1  0.63386000  0.62831000  0.53611000  1
  O  O37  1  0.36614000  0.12831000  0.96389000  1
  O  O38  1  0.36614000  0.37169000  0.46389000  1
  O  O39  1  0.63386000  0.87169000  0.03611000  1
  O  O40  1  0.66292000  0.72286000  0.39826000  1
  O  O41  1  0.33708000  0.22286000  0.10174000  1
  O  O42  1  0.33708000  0.27714000  0.60174000  1
  O  O43  1  0.66292000  0.77714000  0.89826000  1
  O  O44  1  0.68719000  0.89321000  0.21610000  1
  O  O45  1  0.31281000  0.39321000  0.28390000  1
  O  O46  1  0.31281000  0.10679000  0.78390000  1
  O  O47  1  0.68719000  0.60679000  0.71610000  1
  O  O48  1  0.01176000  0.67117000  0.21487000  1
  O  O49  1  0.98824000  0.17117000  0.28513000  1
  O  O50  1  0.98824000  0.32883000  0.78513000  1
  O  O51  1  0.01176000  0.82883000  0.71487000  1
  O  O52  1  0.79392000  0.04981000  0.32414000  1
  O  O53  1  0.20608000  0.54981000  0.17586000  1
  O  O54  1  0.20608000  0.95019000  0.67586000  1
  O  O55  1  0.79392000  0.45019000  0.82414000  1
  O  O56  1  0.48751000  0.96329000  0.28952000  1
  O  O57  1  0.51249000  0.46329000  0.21048000  1
  O  O58  1  0.51249000  0.03671000  0.71048000  1
  O  O59  1  0.48751000  0.53671000  0.78952000  1
  O  O60  1  0.90726000  0.74393000  0.33514000  1
  O  O61  1  0.09274000  0.24393000  0.16486000  1
  O  O62  1  0.09274000  0.25607000  0.66486000  1
  O  O63  1  0.90726000  0.75607000  0.83514000  1
