# generated using pymatgen
data_Si
_symmetry_space_group_name_H-M   'P 1'
_cell_length_a   8.20650000
_cell_length_b   14.13640000
_cell_length_c   15.40456000
_cell_angle_alpha   90.00000000
_cell_angle_beta   119.27000000
_cell_angle_gamma   90.00000000
_symmetry_Int_Tables_number   1
_chemical_formula_structural   Si
_chemical_formula_sum   Si32
_cell_volume   1558.92281135
_cell_formula_units_Z   32
loop_
 _symmetry_equiv_pos_site_id
 _symmetry_equiv_pos_as_xyz
  1  'x, y, z'
loop_
 _atom_site_type_symbol
 _atom_site_label
 _atom_site_symmetry_multiplicity
 _atom_site_fract_x
 _atom_site_fract_y
 _atom_site_fract_z
 _atom_site_occupancy
  Si  Si0  1  0.84377000  0.67558000  0.24037000  1
  Si  Si1  1  0.15623000  0.17558000  0.25963000  1
  Si  Si2  1  0.15623000  0.32442000  0.75963000  1
  Si  Si3  1  0.84377000  0.82442000  0.74037000  1
  Si  Si4  1  0.21266000  0.69489000  0.61103000  1
  Si  Si5  1  0.78734000  0.19489000  0.88897000  1
  Si  Si6  1  0.78734000  0.30511000  0.38897000  1
  Si  Si7  1  0.21266000  0.80511000  0.11103000  1
  Si  Si8  1  0.69818000  0.94755000  0.31065000  1
  Si  Si9  1  0.30182000  0.44755000  0.18935000  1
  Si  Si10  1  0.30182000  0.05245000  0.68935000  1
  Si  Si11  1  0.69818000  0.55245000  0.81065000  1
  Si  Si12  1  0.58055000  0.62826000  0.42072000  1
  Si  Si13  1  0.41945000  0.12826000  0.07928000  1
  Si  Si14  1  0.41945000  0.37174000  0.57928000  1
  Si  Si15  1  0.58055000  0.87174000  0.92072000  1
  Si  Si16  1  0.85437000  0.77365000  0.41923000  1
  Si  Si17  1  0.14563000  0.27365000  0.08077000  1
  Si  Si18  1  0.14563000  0.22635000  0.58077000  1
  Si  Si19  1  0.85437000  0.72635000  0.91923000  1
  Si  Si20  1  0.58573000  0.82846000  0.11771000  1
  Si  Si21  1  0.41427000  0.32846000  0.38229000  1
  Si  Si22  1  0.41427000  0.17154000  0.88229000  1
  Si  Si23  1  0.58573000  0.67154000  0.61771000  1
  Si  Si24  1  0.21896000  0.64466000  0.23670000  1
  Si  Si25  1  0.78104000  0.14466000  0.26330000  1
  Si  Si26  1  0.78104000  0.35534000  0.76330000  1
  Si  Si27  1  0.21896000  0.85534000  0.73670000  1
  Si  Si28  1  0.70514000  0.49581000  0.30589000  1
  Si  Si29  1  0.29486000  0.99581000  0.19411000  1
  Si  Si30  1  0.29486000  0.50419000  0.69411000  1
  Si  Si31  1  0.70514000  0.00419000  0.80589000  1
