# generated using pymatgen
data_O2
_symmetry_space_group_name_H-M   'P 1'
_cell_length_a   13.79500000
_cell_length_b   13.79500000
_cell_length_c   40.75000000
_cell_angle_alpha   90.00000000
_cell_angle_beta   90.00000000
_cell_angle_gamma   120.00000000
_symmetry_Int_Tables_number   1
_chemical_formula_structural   O2
_chemical_formula_sum   O248
_cell_volume   6715.86031270
_cell_formula_units_Z   124
loop_
 _symmetry_equiv_pos_site_id
 _symmetry_equiv_pos_as_xyz
  1  'x, y, z'
loop_
 _atom_site_type_symbol
 _atom_site_label
 _atom_site_symmetry_multiplicity
 _atom_site_fract_x
 _atom_site_fract_y
 _atom_site_fract_z
 _atom_site_occupancy
  O  O0  1  0.68890000  0.93940000  0.08960000  1
  O  O1  1  0.35556667  0.27273333  0.42293333  1
  O  O2  1  0.02223333  0.60606667  0.75626667  1
  O  O3  1  0.06060000  0.74950000  0.08960000  1
  O  O4  1  0.72726667  0.08283333  0.42293333  1
  O  O5  1  0.39393333  0.41616667  0.75626667  1
  O  O6  1  0.25050000  0.31110000  0.08960000  1
  O  O7  1  0.91716667  0.64443333  0.42293333  1
  O  O8  1  0.58383333  0.97776667  0.75626667  1
  O  O9  1  0.06060000  0.31110000  0.08960000  1
  O  O10  1  0.72726667  0.64443333  0.42293333  1
  O  O11  1  0.39393333  0.97776667  0.75626667  1
  O  O12  1  0.25050000  0.93940000  0.08960000  1
  O  O13  1  0.91716667  0.27273333  0.42293333  1
  O  O14  1  0.58383333  0.60606667  0.75626667  1
  O  O15  1  0.68890000  0.74950000  0.08960000  1
  O  O16  1  0.35556667  0.08283333  0.42293333  1
  O  O17  1  0.02223333  0.41616667  0.75626667  1
  O  O18  1  0.31110000  0.06060000  0.91040000  1
  O  O19  1  0.97776667  0.39393333  0.24373333  1
  O  O20  1  0.64443333  0.72726667  0.57706667  1
  O  O21  1  0.93940000  0.25050000  0.91040000  1
  O  O22  1  0.60606667  0.58383333  0.24373333  1
  O  O23  1  0.27273333  0.91716667  0.57706667  1
  O  O24  1  0.74950000  0.68890000  0.91040000  1
  O  O25  1  0.41616667  0.02223333  0.24373333  1
  O  O26  1  0.08283333  0.35556667  0.57706667  1
  O  O27  1  0.93940000  0.68890000  0.91040000  1
  O  O28  1  0.60606667  0.02223333  0.24373333  1
  O  O29  1  0.27273333  0.35556667  0.57706667  1
  O  O30  1  0.74950000  0.06060000  0.91040000  1
  O  O31  1  0.41616667  0.39393333  0.24373333  1
  O  O32  1  0.08283333  0.72726667  0.57706667  1
  O  O33  1  0.31110000  0.25050000  0.91040000  1
  O  O34  1  0.97776667  0.58383333  0.24373333  1
  O  O35  1  0.64443333  0.91716667  0.57706667  1
  O  O36  1  0.64390000  0.09840000  0.07930000  1
  O  O37  1  0.31056667  0.43173333  0.41263333  1
  O  O38  1  0.97723333  0.76506667  0.74596667  1
  O  O39  1  0.90160000  0.54550000  0.07930000  1
  O  O40  1  0.56826667  0.87883333  0.41263333  1
  O  O41  1  0.23493333  0.21216667  0.74596667  1
  O  O42  1  0.45450000  0.35610000  0.07930000  1
  O  O43  1  0.12116667  0.68943333  0.41263333  1
  O  O44  1  0.78783333  0.02276667  0.74596667  1
  O  O45  1  0.90160000  0.35610000  0.07930000  1
  O  O46  1  0.56826667  0.68943333  0.41263333  1
  O  O47  1  0.23493333  0.02276667  0.74596667  1
  O  O48  1  0.45450000  0.09840000  0.07930000  1
  O  O49  1  0.12116667  0.43173333  0.41263333  1
  O  O50  1  0.78783333  0.76506667  0.74596667  1
  O  O51  1  0.64390000  0.54550000  0.07930000  1
  O  O52  1  0.31056667  0.87883333  0.41263333  1
  O  O53  1  0.97723333  0.21216667  0.74596667  1
  O  O54  1  0.35610000  0.90160000  0.92070000  1
  O  O55  1  0.02276667  0.23493333  0.25403333  1
  O  O56  1  0.68943333  0.56826667  0.58736667  1
  O  O57  1  0.09840000  0.45450000  0.92070000  1
  O  O58  1  0.76506667  0.78783333  0.25403333  1
  O  O59  1  0.43173333  0.12116667  0.58736667  1
  O  O60  1  0.54550000  0.64390000  0.92070000  1
  O  O61  1  0.21216667  0.97723333  0.25403333  1
  O  O62  1  0.87883333  0.31056667  0.58736667  1
  O  O63  1  0.09840000  0.64390000  0.92070000  1
  O  O64  1  0.76506667  0.97723333  0.25403333  1
  O  O65  1  0.43173333  0.31056667  0.58736667  1
  O  O66  1  0.54550000  0.90160000  0.92070000  1
  O  O67  1  0.21216667  0.23493333  0.25403333  1
  O  O68  1  0.87883333  0.56826667  0.58736667  1
  O  O69  1  0.35610000  0.45450000  0.92070000  1
  O  O70  1  0.02276667  0.78783333  0.25403333  1
  O  O71  1  0.68943333  0.12116667  0.58736667  1
  O  O72  1  0.85390000  0.14610000  0.07990000  1
  O  O73  1  0.52056667  0.47943333  0.41323333  1
  O  O74  1  0.18723333  0.81276667  0.74656667  1
  O  O75  1  0.85390000  0.70780000  0.07990000  1
  O  O76  1  0.52056667  0.04113333  0.41323333  1
  O  O77  1  0.18723333  0.37446667  0.74656667  1
  O  O78  1  0.29220000  0.14610000  0.07990000  1
  O  O79  1  0.95886667  0.47943333  0.41323333  1
  O  O80  1  0.62553333  0.81276667  0.74656667  1
  O  O81  1  0.14610000  0.85390000  0.92010000  1
  O  O82  1  0.81276667  0.18723333  0.25343333  1
  O  O83  1  0.47943333  0.52056667  0.58676667  1
  O  O84  1  0.14610000  0.29220000  0.92010000  1
  O  O85  1  0.81276667  0.62553333  0.25343333  1
  O  O86  1  0.47943333  0.95886667  0.58676667  1
  O  O87  1  0.70780000  0.85390000  0.92010000  1
  O  O88  1  0.37446667  0.18723333  0.25343333  1
  O  O89  1  0.04113333  0.52056667  0.58676667  1
  O  O90  1  0.72230000  0.03080000  0.03100000  1
  O  O91  1  0.38896667  0.36413333  0.36433333  1
  O  O92  1  0.05563333  0.69746667  0.69766667  1
  O  O93  1  0.96920000  0.69150000  0.03100000  1
  O  O94  1  0.63586667  0.02483333  0.36433333  1
  O  O95  1  0.30253333  0.35816667  0.69766667  1
  O  O96  1  0.30850000  0.27770000  0.03100000  1
  O  O97  1  0.97516667  0.61103333  0.36433333  1
  O  O98  1  0.64183333  0.94436667  0.69766667  1
  O  O99  1  0.96920000  0.27770000  0.03100000  1
  O  O100  1  0.63586667  0.61103333  0.36433333  1
  O  O101  1  0.30253333  0.94436667  0.69766667  1
  O  O102  1  0.30850000  0.03080000  0.03100000  1
  O  O103  1  0.97516667  0.36413333  0.36433333  1
  O  O104  1  0.64183333  0.69746667  0.69766667  1
  O  O105  1  0.72230000  0.69150000  0.03100000  1
  O  O106  1  0.38896667  0.02483333  0.36433333  1
  O  O107  1  0.05563333  0.35816667  0.69766667  1
  O  O108  1  0.27770000  0.96920000  0.96900000  1
  O  O109  1  0.94436667  0.30253333  0.30233333  1
  O  O110  1  0.61103333  0.63586667  0.63566667  1
  O  O111  1  0.03080000  0.30850000  0.96900000  1
  O  O112  1  0.69746667  0.64183333  0.30233333  1
  O  O113  1  0.36413333  0.97516667  0.63566667  1
  O  O114  1  0.69150000  0.72230000  0.96900000  1
  O  O115  1  0.35816667  0.05563333  0.30233333  1
  O  O116  1  0.02483333  0.38896667  0.63566667  1
  O  O117  1  0.03080000  0.72230000  0.96900000  1
  O  O118  1  0.69746667  0.05563333  0.30233333  1
  O  O119  1  0.36413333  0.38896667  0.63566667  1
  O  O120  1  0.69150000  0.96920000  0.96900000  1
  O  O121  1  0.35816667  0.30253333  0.30233333  1
  O  O122  1  0.02483333  0.63586667  0.63566667  1
  O  O123  1  0.27770000  0.30850000  0.96900000  1
  O  O124  1  0.94436667  0.64183333  0.30233333  1
  O  O125  1  0.61103333  0.97516667  0.63566667  1
  O  O126  1  0.14950000  0.29910000  0.14550000  1
  O  O127  1  0.81616667  0.63243333  0.47883333  1
  O  O128  1  0.48283333  0.96576667  0.81216667  1
  O  O129  1  0.70090000  0.85040000  0.14550000  1
  O  O130  1  0.36756667  0.18373333  0.47883333  1
  O  O131  1  0.03423333  0.51706667  0.81216667  1
  O  O132  1  0.14960000  0.85050000  0.14550000  1
  O  O133  1  0.81626667  0.18383333  0.47883333  1
  O  O134  1  0.48293333  0.51716667  0.81216667  1
  O  O135  1  0.81626667  0.63243333  0.47883333  1
  O  O136  1  0.81616667  0.18373333  0.47883333  1
  O  O137  1  0.85050000  0.70090000  0.85450000  1
  O  O138  1  0.51716667  0.03423333  0.18783333  1
  O  O139  1  0.18383333  0.36756667  0.52116667  1
  O  O140  1  0.29910000  0.14960000  0.85450000  1
  O  O141  1  0.96576667  0.48293333  0.18783333  1
  O  O142  1  0.63243333  0.81626667  0.52116667  1
  O  O143  1  0.85040000  0.14950000  0.85450000  1
  O  O144  1  0.51706667  0.48283333  0.18783333  1
  O  O145  1  0.18373333  0.81616667  0.52116667  1
  O  O146  1  0.63243333  0.81616667  0.52116667  1
  O  O147  1  0.18383333  0.81626667  0.52116667  1
  O  O148  1  0.06380000  0.12760000  0.10410000  1
  O  O149  1  0.73046667  0.46093333  0.43743333  1
  O  O150  1  0.39713333  0.79426667  0.77076667  1
  O  O151  1  0.87240000  0.93620000  0.10410000  1
  O  O152  1  0.53906667  0.26953333  0.43743333  1
  O  O153  1  0.20573333  0.60286667  0.77076667  1
  O  O154  1  0.06380000  0.93620000  0.10410000  1
  O  O155  1  0.73046667  0.26953333  0.43743333  1
  O  O156  1  0.39713333  0.60286667  0.77076667  1
  O  O157  1  0.93620000  0.87240000  0.89590000  1
  O  O158  1  0.60286667  0.20573333  0.22923333  1
  O  O159  1  0.26953333  0.53906667  0.56256667  1
  O  O160  1  0.12760000  0.06380000  0.89590000  1
  O  O161  1  0.79426667  0.39713333  0.22923333  1
  O  O162  1  0.46093333  0.73046667  0.56256667  1
  O  O163  1  0.93620000  0.06380000  0.89590000  1
  O  O164  1  0.60286667  0.39713333  0.22923333  1
  O  O165  1  0.26953333  0.73046667  0.56256667  1
  O  O166  1  0.17380000  0.34770000  0.20830000  1
  O  O167  1  0.84046667  0.68103333  0.54163333  1
  O  O168  1  0.50713333  0.01436667  0.87496667  1
  O  O169  1  0.65230000  0.82610000  0.20830000  1
  O  O170  1  0.31896667  0.15943333  0.54163333  1
  O  O171  1  0.98563333  0.49276667  0.87496667  1
  O  O172  1  0.17390000  0.82620000  0.20830000  1
  O  O173  1  0.84056667  0.15953333  0.54163333  1
  O  O174  1  0.50723333  0.49286667  0.87496667  1
  O  O175  1  0.50723333  0.01436667  0.87496667  1
  O  O176  1  0.50713333  0.49276667  0.87496667  1
  O  O177  1  0.82620000  0.65230000  0.79170000  1
  O  O178  1  0.49286667  0.98563333  0.12503333  1
  O  O179  1  0.15953333  0.31896667  0.45836667  1
  O  O180  1  0.34770000  0.17390000  0.79170000  1
  O  O181  1  0.01436667  0.50723333  0.12503333  1
  O  O182  1  0.68103333  0.84056667  0.45836667  1
  O  O183  1  0.82610000  0.17380000  0.79170000  1
  O  O184  1  0.49276667  0.50713333  0.12503333  1
  O  O185  1  0.15943333  0.84046667  0.45836667  1
  O  O186  1  0.01436667  0.50713333  0.12503333  1
  O  O187  1  0.49286667  0.50723333  0.12503333  1
  O  O188  1  0.14230000  0.47560000  0.16670000  1
  O  O189  1  0.80896667  0.80893333  0.50003333  1
  O  O190  1  0.47563333  0.14226667  0.83336667  1
  O  O191  1  0.52440000  0.66670000  0.16670000  1
  O  O192  1  0.19106667  0.00003333  0.50003333  1
  O  O193  1  0.85773333  0.33336667  0.83336667  1
  O  O194  1  0.33330000  0.85770000  0.16670000  1
  O  O195  1  0.99996667  0.19103333  0.50003333  1
  O  O196  1  0.66663333  0.52436667  0.83336667  1
  O  O197  1  0.52440000  0.85770000  0.16670000  1
  O  O198  1  0.19106667  0.19103333  0.50003333  1
  O  O199  1  0.85773333  0.52436667  0.83336667  1
  O  O200  1  0.33330000  0.47560000  0.16670000  1
  O  O201  1  0.99996667  0.80893333  0.50003333  1
  O  O202  1  0.66663333  0.14226667  0.83336667  1
  O  O203  1  0.14230000  0.66670000  0.16670000  1
  O  O204  1  0.80896667  0.00003333  0.50003333  1
  O  O205  1  0.47563333  0.33336667  0.83336667  1
  O  O206  1  0.06380000  0.12750000  0.20810000  1
  O  O207  1  0.73046667  0.46083333  0.54143333  1
  O  O208  1  0.39713333  0.79416667  0.87476667  1
  O  O209  1  0.87250000  0.93630000  0.20810000  1
  O  O210  1  0.53916667  0.26963333  0.54143333  1
  O  O211  1  0.20583333  0.60296667  0.87476667  1
  O  O212  1  0.06370000  0.93620000  0.20810000  1
  O  O213  1  0.73036667  0.26953333  0.54143333  1
  O  O214  1  0.39703333  0.60286667  0.87476667  1
  O  O215  1  0.93620000  0.87250000  0.79190000  1
  O  O216  1  0.60286667  0.20583333  0.12523333  1
  O  O217  1  0.26953333  0.53916667  0.45856667  1
  O  O218  1  0.12750000  0.06370000  0.79190000  1
  O  O219  1  0.79416667  0.39703333  0.12523333  1
  O  O220  1  0.46083333  0.73036667  0.45856667  1
  O  O221  1  0.93630000  0.06380000  0.79190000  1
  O  O222  1  0.60296667  0.39713333  0.12523333  1
  O  O223  1  0.26963333  0.73046667  0.45856667  1
  O  O224  1  0.10550000  0.89450000  0.00910000  1
  O  O225  1  0.77216667  0.22783333  0.34243333  1
  O  O226  1  0.43883333  0.56116667  0.67576667  1
  O  O227  1  0.10550000  0.21100000  0.00910000  1
  O  O228  1  0.77216667  0.54433333  0.34243333  1
  O  O229  1  0.43883333  0.87766667  0.67576667  1
  O  O230  1  0.78900000  0.89450000  0.00910000  1
  O  O231  1  0.45566667  0.22783333  0.34243333  1
  O  O232  1  0.12233333  0.56116667  0.67576667  1
  O  O233  1  0.89450000  0.10550000  0.99090000  1
  O  O234  1  0.56116667  0.43883333  0.32423333  1
  O  O235  1  0.22783333  0.77216667  0.65756667  1
  O  O236  1  0.89450000  0.78900000  0.99090000  1
  O  O237  1  0.56116667  0.12233333  0.32423333  1
  O  O238  1  0.22783333  0.45566667  0.65756667  1
  O  O239  1  0.21100000  0.10550000  0.99090000  1
  O  O240  1  0.87766667  0.43883333  0.32423333  1
  O  O241  1  0.54433333  0.77216667  0.65756667  1
  O  O242  1  0.00000000  0.00000000  0.15610000  1
  O  O243  1  0.66666667  0.33333333  0.48943333  1
  O  O244  1  0.33333333  0.66666667  0.82276667  1
  O  O245  1  0.00000000  0.00000000  0.84390000  1
  O  O246  1  0.66666667  0.33333333  0.17723333  1
  O  O247  1  0.33333333  0.66666667  0.51056667  1
