# generated using pymatgen
data_Si
_symmetry_space_group_name_H-M   'P 1'
_cell_length_a   13.79500000
_cell_length_b   13.79500000
_cell_length_c   40.75000000
_cell_angle_alpha   90.00000000
_cell_angle_beta   90.00000000
_cell_angle_gamma   120.00000000
_symmetry_Int_Tables_number   1
_chemical_formula_structural   Si
_chemical_formula_sum   Si124
_cell_volume   6715.86031270
_cell_formula_units_Z   124
loop_
 _symmetry_equiv_pos_site_id
 _symmetry_equiv_pos_as_xyz
  1  'x, y, z'
loop_
 _atom_site_type_symbol
 _atom_site_label
 _atom_site_symmetry_multiplicity
 _atom_site_fract_x
 _atom_site_fract_y
 _atom_site_fract_z
 _atom_site_occupancy
  Si  Si0  1  0.72810000  0.05390000  0.06980000  1
  Si  Si1  1  0.39476667  0.38723333  0.40313333  1
  Si  Si2  1  0.06143333  0.72056667  0.73646667  1
  Si  Si3  1  0.94610000  0.67420000  0.06980000  1
  Si  Si4  1  0.61276667  0.00753333  0.40313333  1
  Si  Si5  1  0.27943333  0.34086667  0.73646667  1
  Si  Si6  1  0.32580000  0.27190000  0.06980000  1
  Si  Si7  1  0.99246667  0.60523333  0.40313333  1
  Si  Si8  1  0.65913333  0.93856667  0.73646667  1
  Si  Si9  1  0.94610000  0.27190000  0.06980000  1
  Si  Si10  1  0.61276667  0.60523333  0.40313333  1
  Si  Si11  1  0.27943333  0.93856667  0.73646667  1
  Si  Si12  1  0.32580000  0.05390000  0.06980000  1
  Si  Si13  1  0.99246667  0.38723333  0.40313333  1
  Si  Si14  1  0.65913333  0.72056667  0.73646667  1
  Si  Si15  1  0.72810000  0.67420000  0.06980000  1
  Si  Si16  1  0.39476667  0.00753333  0.40313333  1
  Si  Si17  1  0.06143333  0.34086667  0.73646667  1
  Si  Si18  1  0.27190000  0.94610000  0.93020000  1
  Si  Si19  1  0.93856667  0.27943333  0.26353333  1
  Si  Si20  1  0.60523333  0.61276667  0.59686667  1
  Si  Si21  1  0.05390000  0.32580000  0.93020000  1
  Si  Si22  1  0.72056667  0.65913333  0.26353333  1
  Si  Si23  1  0.38723333  0.99246667  0.59686667  1
  Si  Si24  1  0.67420000  0.72810000  0.93020000  1
  Si  Si25  1  0.34086667  0.06143333  0.26353333  1
  Si  Si26  1  0.00753333  0.39476667  0.59686667  1
  Si  Si27  1  0.05390000  0.72810000  0.93020000  1
  Si  Si28  1  0.72056667  0.06143333  0.26353333  1
  Si  Si29  1  0.38723333  0.39476667  0.59686667  1
  Si  Si30  1  0.67420000  0.94610000  0.93020000  1
  Si  Si31  1  0.34086667  0.27943333  0.26353333  1
  Si  Si32  1  0.00753333  0.61276667  0.59686667  1
  Si  Si33  1  0.27190000  0.32580000  0.93020000  1
  Si  Si34  1  0.93856667  0.65913333  0.26353333  1
  Si  Si35  1  0.60523333  0.99246667  0.59686667  1
  Si  Si36  1  0.13090000  0.26180000  0.10750000  1
  Si  Si37  1  0.79756667  0.59513333  0.44083333  1
  Si  Si38  1  0.46423333  0.92846667  0.77416667  1
  Si  Si39  1  0.73820000  0.86910000  0.10750000  1
  Si  Si40  1  0.40486667  0.20243333  0.44083333  1
  Si  Si41  1  0.07153333  0.53576667  0.77416667  1
  Si  Si42  1  0.13090000  0.86910000  0.10750000  1
  Si  Si43  1  0.79756667  0.20243333  0.44083333  1
  Si  Si44  1  0.46423333  0.53576667  0.77416667  1
  Si  Si45  1  0.86910000  0.73820000  0.89250000  1
  Si  Si46  1  0.53576667  0.07153333  0.22583333  1
  Si  Si47  1  0.20243333  0.40486667  0.55916667  1
  Si  Si48  1  0.26180000  0.13090000  0.89250000  1
  Si  Si49  1  0.92846667  0.46423333  0.22583333  1
  Si  Si50  1  0.59513333  0.79756667  0.55916667  1
  Si  Si51  1  0.86910000  0.13090000  0.89250000  1
  Si  Si52  1  0.53576667  0.46423333  0.22583333  1
  Si  Si53  1  0.20243333  0.79756667  0.55916667  1
  Si  Si54  1  0.19990000  0.39990000  0.17180000  1
  Si  Si55  1  0.86656667  0.73323333  0.50513333  1
  Si  Si56  1  0.53323333  0.06656667  0.83846667  1
  Si  Si57  1  0.60010000  0.80000000  0.17180000  1
  Si  Si58  1  0.26676667  0.13333333  0.50513333  1
  Si  Si59  1  0.93343333  0.46666667  0.83846667  1
  Si  Si60  1  0.20000000  0.80010000  0.17180000  1
  Si  Si61  1  0.86666667  0.13343333  0.50513333  1
  Si  Si62  1  0.53333333  0.46676667  0.83846667  1
  Si  Si63  1  0.86666667  0.73323333  0.50513333  1
  Si  Si64  1  0.86656667  0.13333333  0.50513333  1
  Si  Si65  1  0.80010000  0.60010000  0.82820000  1
  Si  Si66  1  0.46676667  0.93343333  0.16153333  1
  Si  Si67  1  0.13343333  0.26676667  0.49486667  1
  Si  Si68  1  0.39990000  0.20000000  0.82820000  1
  Si  Si69  1  0.06656667  0.53333333  0.16153333  1
  Si  Si70  1  0.73323333  0.86666667  0.49486667  1
  Si  Si71  1  0.80000000  0.19990000  0.82820000  1
  Si  Si72  1  0.46666667  0.53323333  0.16153333  1
  Si  Si73  1  0.13333333  0.86656667  0.49486667  1
  Si  Si74  1  0.73323333  0.86656667  0.49486667  1
  Si  Si75  1  0.13343333  0.86666667  0.49486667  1
  Si  Si76  1  0.11870000  0.23740000  0.23090000  1
  Si  Si77  1  0.78536667  0.57073333  0.56423333  1
  Si  Si78  1  0.45203333  0.90406667  0.89756667  1
  Si  Si79  1  0.76260000  0.88130000  0.23090000  1
  Si  Si80  1  0.42926667  0.21463333  0.56423333  1
  Si  Si81  1  0.09593333  0.54796667  0.89756667  1
  Si  Si82  1  0.11870000  0.88130000  0.23090000  1
  Si  Si83  1  0.78536667  0.21463333  0.56423333  1
  Si  Si84  1  0.45203333  0.54796667  0.89756667  1
  Si  Si85  1  0.88130000  0.76260000  0.76910000  1
  Si  Si86  1  0.54796667  0.09593333  0.10243333  1
  Si  Si87  1  0.21463333  0.42926667  0.43576667  1
  Si  Si88  1  0.23740000  0.11870000  0.76910000  1
  Si  Si89  1  0.90406667  0.45203333  0.10243333  1
  Si  Si90  1  0.57073333  0.78536667  0.43576667  1
  Si  Si91  1  0.88130000  0.11870000  0.76910000  1
  Si  Si92  1  0.54796667  0.45203333  0.10243333  1
  Si  Si93  1  0.21463333  0.78536667  0.43576667  1
  Si  Si94  1  0.22560000  0.00000000  0.00000000  1
  Si  Si95  1  0.89226667  0.33333333  0.33333333  1
  Si  Si96  1  0.55893333  0.66666667  0.66666667  1
  Si  Si97  1  0.00000000  0.22560000  0.00000000  1
  Si  Si98  1  0.66666667  0.55893333  0.33333333  1
  Si  Si99  1  0.33333333  0.89226667  0.66666667  1
  Si  Si100  1  0.77440000  0.77440000  0.00000000  1
  Si  Si101  1  0.44106667  0.10773333  0.33333333  1
  Si  Si102  1  0.10773333  0.44106667  0.66666667  1
  Si  Si103  1  0.00000000  0.77440000  0.00000000  1
  Si  Si104  1  0.66666667  0.10773333  0.33333333  1
  Si  Si105  1  0.33333333  0.44106667  0.66666667  1
  Si  Si106  1  0.77440000  0.00000000  0.00000000  1
  Si  Si107  1  0.44106667  0.33333333  0.33333333  1
  Si  Si108  1  0.10773333  0.66666667  0.66666667  1
  Si  Si109  1  0.22560000  0.22560000  0.00000000  1
  Si  Si110  1  0.89226667  0.55893333  0.33333333  1
  Si  Si111  1  0.55893333  0.89226667  0.66666667  1
  Si  Si112  1  0.00000000  0.00000000  0.19560000  1
  Si  Si113  1  0.66666667  0.33333333  0.52893333  1
  Si  Si114  1  0.33333333  0.66666667  0.86226667  1
  Si  Si115  1  0.00000000  0.00000000  0.80440000  1
  Si  Si116  1  0.66666667  0.33333333  0.13773333  1
  Si  Si117  1  0.33333333  0.66666667  0.47106667  1
  Si  Si118  1  0.00000000  0.00000000  0.11660000  1
  Si  Si119  1  0.66666667  0.33333333  0.44993333  1
  Si  Si120  1  0.33333333  0.66666667  0.78326667  1
  Si  Si121  1  0.00000000  0.00000000  0.88340000  1
  Si  Si122  1  0.66666667  0.33333333  0.21673333  1
  Si  Si123  1  0.33333333  0.66666667  0.55006667  1
