# generated using pymatgen
data_SiO4
_symmetry_space_group_name_H-M   'P 1'
_cell_length_a   13.79500000
_cell_length_b   13.79500000
_cell_length_c   40.75000000
_cell_angle_alpha   90.00000000
_cell_angle_beta   90.00000000
_cell_angle_gamma   120.00000000
_symmetry_Int_Tables_number   1
_chemical_formula_structural   SiO4
_chemical_formula_sum   'Si1 O4'
_cell_volume   6715.86031270
_cell_formula_units_Z   1
loop_
 _symmetry_equiv_pos_site_id
 _symmetry_equiv_pos_as_xyz
  1  'x, y, z'
loop_
 _atom_site_type_symbol
 _atom_site_label
 _atom_site_symmetry_multiplicity
 _atom_site_fract_x
 _atom_site_fract_y
 _atom_site_fract_z
 _atom_site_occupancy
  Si  Si0  1  0.20243333  0.40486667  0.55916667  1
  O  O1  1  0.08283333  0.35556667  0.57706667  1
  O  O2  1  0.27273333  0.35556667  0.57706667  1
  O  O3  1  0.18383333  0.36756667  0.52116667  1
  O  O4  1  0.26953333  0.53906667  0.56256667  1
