# generated using pymatgen
data_Si
_symmetry_space_group_name_H-M   'P 1'
_cell_length_a   15.79400000
_cell_length_b   9.20600000
_cell_length_c   8.58900000
_cell_angle_alpha   90.00000000
_cell_angle_beta   90.00000000
_cell_angle_gamma   90.00000000
_symmetry_Int_Tables_number   1
_chemical_formula_structural   Si
_chemical_formula_sum   Si24
_cell_volume   1248.83685520
_cell_formula_units_Z   24
loop_
 _symmetry_equiv_pos_site_id
 _symmetry_equiv_pos_as_xyz
  1  'x, y, z'
loop_
 _atom_site_type_symbol
 _atom_site_label
 _atom_site_symmetry_multiplicity
 _atom_site_fract_x
 _atom_site_fract_y
 _atom_site_fract_z
 _atom_site_occupancy
  Si  Si0  1  0.16810000  0.66460000  0.43720000  1
  Si  Si1  1  0.66810000  0.16460000  0.43720000  1
  Si  Si2  1  0.83190000  0.66460000  0.43720000  1
  Si  Si3  1  0.33190000  0.16460000  0.43720000  1
  Si  Si4  1  0.16810000  0.33540000  0.93720000  1
  Si  Si5  1  0.66810000  0.83540000  0.93720000  1
  Si  Si6  1  0.83190000  0.33540000  0.93720000  1
  Si  Si7  1  0.33190000  0.83540000  0.93720000  1
  Si  Si8  1  0.83190000  0.33540000  0.56280000  1
  Si  Si9  1  0.33190000  0.83540000  0.56280000  1
  Si  Si10  1  0.16810000  0.33540000  0.56280000  1
  Si  Si11  1  0.66810000  0.83540000  0.56280000  1
  Si  Si12  1  0.83190000  0.66460000  0.06280000  1
  Si  Si13  1  0.33190000  0.16460000  0.06280000  1
  Si  Si14  1  0.16810000  0.66460000  0.06280000  1
  Si  Si15  1  0.66810000  0.16460000  0.06280000  1
  Si  Si16  1  0.00000000  0.33560000  0.43710000  1
  Si  Si17  1  0.50000000  0.83560000  0.43710000  1
  Si  Si18  1  0.00000000  0.66440000  0.93710000  1
  Si  Si19  1  0.50000000  0.16440000  0.93710000  1
  Si  Si20  1  0.00000000  0.66440000  0.56290000  1
  Si  Si21  1  0.50000000  0.16440000  0.56290000  1
  Si  Si22  1  0.00000000  0.33560000  0.06290000  1
  Si  Si23  1  0.50000000  0.83560000  0.06290000  1
