# generated using pymatgen
data_SiO4
_symmetry_space_group_name_H-M   'P 1'
_cell_length_a   23.72894000
_cell_length_b   11.29319000
_cell_length_c   14.47187000
_cell_angle_alpha   90.00000000
_cell_angle_beta   90.00000000
_cell_angle_gamma   90.00000000
_symmetry_Int_Tables_number   1
_chemical_formula_structural   SiO4
_chemical_formula_sum   'Si1 O4'
_cell_volume   3878.10555603
_cell_formula_units_Z   1
loop_
 _symmetry_equiv_pos_site_id
 _symmetry_equiv_pos_as_xyz
  1  'x, y, z'
loop_
 _atom_site_type_symbol
 _atom_site_label
 _atom_site_symmetry_multiplicity
 _atom_site_fract_x
 _atom_site_fract_y
 _atom_site_fract_z
 _atom_site_occupancy
  Si  Si0  1  0.93233000  0.00904000  0.90475000  1
  O  O1  1  0.91571000  -0.05089000  0.80742000  1
  O  O2  1  0.99960000  0.02613000  0.91107000  1
  O  O3  1  0.91225000  -0.07665000  0.98769000  1
  O  O4  1  0.90055000  0.13462000  0.91059000  1
