# generated using pymatgen
data_SiO4
_symmetry_space_group_name_H-M   'P 1'
_cell_length_a   23.72894000
_cell_length_b   11.29319000
_cell_length_c   14.47187000
_cell_angle_alpha   90.00000000
_cell_angle_beta   90.00000000
_cell_angle_gamma   90.00000000
_symmetry_Int_Tables_number   1
_chemical_formula_structural   SiO4
_chemical_formula_sum   'Si1 O4'
_cell_volume   3878.10555603
_cell_formula_units_Z   1
loop_
 _symmetry_equiv_pos_site_id
 _symmetry_equiv_pos_as_xyz
  1  'x, y, z'
loop_
 _atom_site_type_symbol
 _atom_site_label
 _atom_site_symmetry_multiplicity
 _atom_site_fract_x
 _atom_site_fract_y
 _atom_site_fract_z
 _atom_site_occupancy
  Si  Si0  1  0.43233000  0.99096000  0.09525000  1
  O  O1  1  0.41571000  1.05089000  0.19258000  1
  O  O2  1  0.49960000  0.97387000  0.08893000  1
  O  O3  1  0.41225000  1.07665000  0.01231000  1
  O  O4  1  0.40055000  0.86538000  0.08941000  1
