# generated using pymatgen
data_Si
_symmetry_space_group_name_H-M   'P 1'
_cell_length_a   23.72894000
_cell_length_b   11.29319000
_cell_length_c   14.47187000
_cell_angle_alpha   90.00000000
_cell_angle_beta   90.00000000
_cell_angle_gamma   90.00000000
_symmetry_Int_Tables_number   1
_chemical_formula_structural   Si
_chemical_formula_sum   Si66
_cell_volume   3878.10555603
_cell_formula_units_Z   66
loop_
 _symmetry_equiv_pos_site_id
 _symmetry_equiv_pos_as_xyz
  1  'x, y, z'
loop_
 _atom_site_type_symbol
 _atom_site_label
 _atom_site_symmetry_multiplicity
 _atom_site_fract_x
 _atom_site_fract_y
 _atom_site_fract_z
 _atom_site_occupancy
  Si  Si0  1  0.43233000  0.50904000  0.09525000  1
  Si  Si1  1  0.06767000  0.50904000  0.09525000  1
  Si  Si2  1  0.43233000  0.99096000  0.09525000  1
  Si  Si3  1  0.06767000  0.99096000  0.09525000  1
  Si  Si4  1  0.56767000  0.49096000  0.90475000  1
  Si  Si5  1  0.93233000  0.49096000  0.90475000  1
  Si  Si6  1  0.56767000  0.00904000  0.90475000  1
  Si  Si7  1  0.93233000  0.00904000  0.90475000  1
  Si  Si8  1  0.35781000  0.38998000  0.22798000  1
  Si  Si9  1  0.14219000  0.38998000  0.22798000  1
  Si  Si10  1  0.35781000  0.11002000  0.22798000  1
  Si  Si11  1  0.14219000  0.11002000  0.22798000  1
  Si  Si12  1  0.64219000  0.61002000  0.77202000  1
  Si  Si13  1  0.85781000  0.61002000  0.77202000  1
  Si  Si14  1  0.64219000  0.88998000  0.77202000  1
  Si  Si15  1  0.85781000  0.88998000  0.77202000  1
  Si  Si16  1  0.55196000  0.61580000  0.07741000  1
  Si  Si17  1  0.94804000  0.61580000  0.07741000  1
  Si  Si18  1  0.55196000  0.88420000  0.07741000  1
  Si  Si19  1  0.94804000  0.88420000  0.07741000  1
  Si  Si20  1  0.44804000  0.38420000  0.92259000  1
  Si  Si21  1  0.05196000  0.38420000  0.92259000  1
  Si  Si22  1  0.44804000  0.11580000  0.92259000  1
  Si  Si23  1  0.05196000  0.11580000  0.92259000  1
  Si  Si24  1  0.65560000  0.61507000  0.20338000  1
  Si  Si25  1  0.84440000  0.61507000  0.20338000  1
  Si  Si26  1  0.65560000  0.88493000  0.20338000  1
  Si  Si27  1  0.84440000  0.88493000  0.20338000  1
  Si  Si28  1  0.34440000  0.38493000  0.79662000  1
  Si  Si29  1  0.15560000  0.38493000  0.79662000  1
  Si  Si30  1  0.34440000  0.11507000  0.79662000  1
  Si  Si31  1  0.15560000  0.11507000  0.79662000  1
  Si  Si32  1  0.31572000  0.49691000  0.40747000  1
  Si  Si33  1  0.18428000  0.49691000  0.40747000  1
  Si  Si34  1  0.31572000  0.00309000  0.40747000  1
  Si  Si35  1  0.18428000  0.00309000  0.40747000  1
  Si  Si36  1  0.68428000  0.50309000  0.59253000  1
  Si  Si37  1  0.81572000  0.50309000  0.59253000  1
  Si  Si38  1  0.68428000  0.99691000  0.59253000  1
  Si  Si39  1  0.81572000  0.99691000  0.59253000  1
  Si  Si40  1  0.68232000  0.61756000  0.40646000  1
  Si  Si41  1  0.81768000  0.61756000  0.40646000  1
  Si  Si42  1  0.68232000  0.88244000  0.40646000  1
  Si  Si43  1  0.81768000  0.88244000  0.40646000  1
  Si  Si44  1  0.31768000  0.38244000  0.59354000  1
  Si  Si45  1  0.18232000  0.38244000  0.59354000  1
  Si  Si46  1  0.31768000  0.11756000  0.59354000  1
  Si  Si47  1  0.18232000  0.11756000  0.59354000  1
  Si  Si48  1  0.31427000  0.75000000  0.31924000  1
  Si  Si49  1  0.18573000  0.75000000  0.31924000  1
  Si  Si50  1  0.68573000  0.25000000  0.68076000  1
  Si  Si51  1  0.81427000  0.25000000  0.68076000  1
  Si  Si52  1  0.36636000  0.75000000  0.12307000  1
  Si  Si53  1  0.13364000  0.75000000  0.12307000  1
  Si  Si54  1  0.63364000  0.25000000  0.87693000  1
  Si  Si55  1  0.86636000  0.25000000  0.87693000  1
  Si  Si56  1  0.25000000  0.39051000  0.12400000  1
  Si  Si57  1  0.25000000  0.10949000  0.12400000  1
  Si  Si58  1  0.75000000  0.60949000  0.87600000  1
  Si  Si59  1  0.75000000  0.89051000  0.87600000  1
  Si  Si60  1  0.75000000  0.50521000  0.07828000  1
  Si  Si61  1  0.75000000  0.99479000  0.07828000  1
  Si  Si62  1  0.25000000  0.49479000  0.92172000  1
  Si  Si63  1  0.25000000  0.00521000  0.92172000  1
  Si  Si64  1  0.75000000  0.25000000  0.98945000  1
  Si  Si65  1  0.25000000  0.75000000  0.01055000  1
