# generated using pymatgen
data_O2
_symmetry_space_group_name_H-M   'P 1'
_cell_length_a   23.72894000
_cell_length_b   11.29319000
_cell_length_c   14.47187000
_cell_angle_alpha   90.00000000
_cell_angle_beta   90.00000000
_cell_angle_gamma   90.00000000
_symmetry_Int_Tables_number   1
_chemical_formula_structural   O2
_chemical_formula_sum   O132
_cell_volume   3878.10555603
_cell_formula_units_Z   66
loop_
 _symmetry_equiv_pos_site_id
 _symmetry_equiv_pos_as_xyz
  1  'x, y, z'
loop_
 _atom_site_type_symbol
 _atom_site_label
 _atom_site_symmetry_multiplicity
 _atom_site_fract_x
 _atom_site_fract_y
 _atom_site_fract_z
 _atom_site_occupancy
  O  O0  1  0.75000000  0.36632000  0.05359000  1
  O  O1  1  0.75000000  0.13368000  0.05359000  1
  O  O2  1  0.25000000  0.63368000  0.94641000  1
  O  O3  1  0.25000000  0.86632000  0.94641000  1
  O  O4  1  0.80533000  0.25000000  0.92534000  1
  O  O5  1  0.69467000  0.25000000  0.92534000  1
  O  O6  1  0.19467000  0.75000000  0.07466000  1
  O  O7  1  0.30533000  0.75000000  0.07466000  1
  O  O8  1  0.30543000  0.44555000  0.17190000  1
  O  O9  1  0.19457000  0.44555000  0.17190000  1
  O  O10  1  0.30543000  0.05445000  0.17190000  1
  O  O11  1  0.19457000  0.05445000  0.17190000  1
  O  O12  1  0.69457000  0.55445000  0.82810000  1
  O  O13  1  0.80543000  0.55445000  0.82810000  1
  O  O14  1  0.69457000  0.94555000  0.82810000  1
  O  O15  1  0.80543000  0.94555000  0.82810000  1
  O  O16  1  0.25000000  0.41675000  0.01471000  1
  O  O17  1  0.25000000  0.08325000  0.01471000  1
  O  O18  1  0.75000000  0.58325000  0.98529000  1
  O  O19  1  0.75000000  0.91675000  0.98529000  1
  O  O20  1  0.25000000  0.25000000  0.14223000  1
  O  O21  1  0.75000000  0.75000000  0.85777000  1
  O  O22  1  0.32512000  0.86591000  0.38167000  1
  O  O23  1  0.17488000  0.86591000  0.38167000  1
  O  O24  1  0.32512000  0.63409000  0.38167000  1
  O  O25  1  0.17488000  0.63409000  0.38167000  1
  O  O26  1  0.67488000  0.13409000  0.61833000  1
  O  O27  1  0.82512000  0.13409000  0.61833000  1
  O  O28  1  0.67488000  0.36591000  0.61833000  1
  O  O29  1  0.82512000  0.36591000  0.61833000  1
  O  O30  1  0.35752000  0.75000000  0.23340000  1
  O  O31  1  0.14248000  0.75000000  0.23340000  1
  O  O32  1  0.64248000  0.25000000  0.76660000  1
  O  O33  1  0.85752000  0.25000000  0.76660000  1
  O  O34  1  0.25000000  0.75000000  0.28324000  1
  O  O35  1  0.75000000  0.25000000  0.71676000  1
  O  O36  1  0.41571000  0.44911000  0.19258000  1
  O  O37  1  0.08429000  0.44911000  0.19258000  1
  O  O38  1  0.41571000  0.05089000  0.19258000  1
  O  O39  1  0.08429000  0.05089000  0.19258000  1
  O  O40  1  0.58429000  0.55089000  0.80742000  1
  O  O41  1  0.91571000  0.55089000  0.80742000  1
  O  O42  1  0.58429000  0.94911000  0.80742000  1
  O  O43  1  0.91571000  0.94911000  0.80742000  1
  O  O44  1  0.49960000  0.52613000  0.08893000  1
  O  O45  1  0.00040000  0.52613000  0.08893000  1
  O  O46  1  0.49960000  0.97387000  0.08893000  1
  O  O47  1  0.00040000  0.97387000  0.08893000  1
  O  O48  1  0.50040000  0.47387000  0.91107000  1
  O  O49  1  0.99960000  0.47387000  0.91107000  1
  O  O50  1  0.50040000  0.02613000  0.91107000  1
  O  O51  1  0.99960000  0.02613000  0.91107000  1
  O  O52  1  0.41225000  0.42335000  0.01231000  1
  O  O53  1  0.08775000  0.42335000  0.01231000  1
  O  O54  1  0.41225000  0.07665000  0.01231000  1
  O  O55  1  0.08775000  0.07665000  0.01231000  1
  O  O56  1  0.58775000  0.57665000  0.98769000  1
  O  O57  1  0.91225000  0.57665000  0.98769000  1
  O  O58  1  0.58775000  0.92335000  0.98769000  1
  O  O59  1  0.91225000  0.92335000  0.98769000  1
  O  O60  1  0.40055000  0.63462000  0.08941000  1
  O  O61  1  0.09945000  0.63462000  0.08941000  1
  O  O62  1  0.40055000  0.86538000  0.08941000  1
  O  O63  1  0.09945000  0.86538000  0.08941000  1
  O  O64  1  0.59945000  0.36538000  0.91059000  1
  O  O65  1  0.90055000  0.36538000  0.91059000  1
  O  O66  1  0.59945000  0.13462000  0.91059000  1
  O  O67  1  0.90055000  0.13462000  0.91059000  1
  O  O68  1  0.35080000  0.41474000  0.33689000  1
  O  O69  1  0.14920000  0.41474000  0.33689000  1
  O  O70  1  0.35080000  0.08526000  0.33689000  1
  O  O71  1  0.14920000  0.08526000  0.33689000  1
  O  O72  1  0.64920000  0.58526000  0.66311000  1
  O  O73  1  0.85080000  0.58526000  0.66311000  1
  O  O74  1  0.64920000  0.91474000  0.66311000  1
  O  O75  1  0.85080000  0.91474000  0.66311000  1
  O  O76  1  0.36041000  0.25000000  0.20831000  1
  O  O77  1  0.13959000  0.25000000  0.20831000  1
  O  O78  1  0.63959000  0.75000000  0.79169000  1
  O  O79  1  0.86041000  0.75000000  0.79169000  1
  O  O80  1  0.80545000  0.53341000  0.13842000  1
  O  O81  1  0.69455000  0.53341000  0.13842000  1
  O  O82  1  0.80545000  0.96659000  0.13842000  1
  O  O83  1  0.69455000  0.96659000  0.13842000  1
  O  O84  1  0.19455000  0.46659000  0.86158000  1
  O  O85  1  0.30545000  0.46659000  0.86158000  1
  O  O86  1  0.19455000  0.03341000  0.86158000  1
  O  O87  1  0.30545000  0.03341000  0.86158000  1
  O  O88  1  0.59135000  0.60883000  0.16791000  1
  O  O89  1  0.90865000  0.60883000  0.16791000  1
  O  O90  1  0.59135000  0.89117000  0.16791000  1
  O  O91  1  0.90865000  0.89117000  0.16791000  1
  O  O92  1  0.40865000  0.39117000  0.83209000  1
  O  O93  1  0.09135000  0.39117000  0.83209000  1
  O  O94  1  0.40865000  0.10883000  0.83209000  1
  O  O95  1  0.09135000  0.10883000  0.83209000  1
  O  O96  1  0.52977000  0.75000000  0.06614000  1
  O  O97  1  0.97023000  0.75000000  0.06614000  1
  O  O98  1  0.47023000  0.25000000  0.93386000  1
  O  O99  1  0.02977000  0.25000000  0.93386000  1
  O  O100  1  0.65894000  0.56987000  0.30880000  1
  O  O101  1  0.84106000  0.56987000  0.30880000  1
  O  O102  1  0.65894000  0.93013000  0.30880000  1
  O  O103  1  0.84106000  0.93013000  0.30880000  1
  O  O104  1  0.34106000  0.43013000  0.69120000  1
  O  O105  1  0.15894000  0.43013000  0.69120000  1
  O  O106  1  0.34106000  0.06987000  0.69120000  1
  O  O107  1  0.15894000  0.06987000  0.69120000  1
  O  O108  1  0.67731000  0.75000000  0.19816000  1
  O  O109  1  0.82269000  0.75000000  0.19816000  1
  O  O110  1  0.32269000  0.25000000  0.80184000  1
  O  O111  1  0.17731000  0.25000000  0.80184000  1
  O  O112  1  0.33670000  0.46961000  0.51119000  1
  O  O113  1  0.16330000  0.46961000  0.51119000  1
  O  O114  1  0.33670000  0.03039000  0.51119000  1
  O  O115  1  0.16330000  0.03039000  0.51119000  1
  O  O116  1  0.66330000  0.53039000  0.48881000  1
  O  O117  1  0.83670000  0.53039000  0.48881000  1
  O  O118  1  0.66330000  0.96961000  0.48881000  1
  O  O119  1  0.83670000  0.96961000  0.48881000  1
  O  O120  1  0.25000000  0.46353000  0.39858000  1
  O  O121  1  0.25000000  0.03647000  0.39858000  1
  O  O122  1  0.75000000  0.53647000  0.60142000  1
  O  O123  1  0.75000000  0.96353000  0.60142000  1
  O  O124  1  0.65936000  0.75000000  0.42430000  1
  O  O125  1  0.84064000  0.75000000  0.42430000  1
  O  O126  1  0.34064000  0.25000000  0.57570000  1
  O  O127  1  0.15936000  0.25000000  0.57570000  1
  O  O128  1  0.75000000  0.62194000  0.40252000  1
  O  O129  1  0.75000000  0.87806000  0.40252000  1
  O  O130  1  0.25000000  0.37806000  0.59748000  1
  O  O131  1  0.25000000  0.12194000  0.59748000  1
