# generated using pymatgen
data_Si
_symmetry_space_group_name_H-M   'P 1'
_cell_length_a   14.10500000
_cell_length_b   17.84200000
_cell_length_c   5.25600000
_cell_angle_alpha   90.00000000
_cell_angle_beta   90.00000000
_cell_angle_gamma   90.00000000
_symmetry_Int_Tables_number   1
_chemical_formula_structural   Si
_chemical_formula_sum   Si24
_cell_volume   1322.73237096
_cell_formula_units_Z   24
loop_
 _symmetry_equiv_pos_site_id
 _symmetry_equiv_pos_as_xyz
  1  'x, y, z'
loop_
 _atom_site_type_symbol
 _atom_site_label
 _atom_site_symmetry_multiplicity
 _atom_site_fract_x
 _atom_site_fract_y
 _atom_site_fract_z
 _atom_site_occupancy
  Si  Si0  1  0.29630000  0.04850000  0.25000000  1
  Si  Si1  1  0.79630000  0.54850000  0.25000000  1
  Si  Si2  1  0.70370000  0.04850000  0.25000000  1
  Si  Si3  1  0.20370000  0.54850000  0.25000000  1
  Si  Si4  1  0.29630000  0.95150000  0.75000000  1
  Si  Si5  1  0.79630000  0.45150000  0.75000000  1
  Si  Si6  1  0.70370000  0.95150000  0.75000000  1
  Si  Si7  1  0.20370000  0.45150000  0.75000000  1
  Si  Si8  1  0.20660000  0.21110000  0.25000000  1
  Si  Si9  1  0.70660000  0.71110000  0.25000000  1
  Si  Si10  1  0.79340000  0.21110000  0.25000000  1
  Si  Si11  1  0.29340000  0.71110000  0.25000000  1
  Si  Si12  1  0.20660000  0.78890000  0.75000000  1
  Si  Si13  1  0.70660000  0.28890000  0.75000000  1
  Si  Si14  1  0.79340000  0.78890000  0.75000000  1
  Si  Si15  1  0.29340000  0.28890000  0.75000000  1
  Si  Si16  1  0.00000000  0.27310000  0.25000000  1
  Si  Si17  1  0.50000000  0.77310000  0.25000000  1
  Si  Si18  1  0.00000000  0.72690000  0.75000000  1
  Si  Si19  1  0.50000000  0.22690000  0.75000000  1
  Si  Si20  1  0.50000000  0.12290000  0.25000000  1
  Si  Si21  1  0.00000000  0.62290000  0.25000000  1
  Si  Si22  1  0.50000000  0.87710000  0.75000000  1
  Si  Si23  1  0.00000000  0.37710000  0.75000000  1
