# generated using pymatgen
data_Si
_symmetry_space_group_name_H-M   'P 1'
_cell_length_a   10.10100000
_cell_length_b   10.10100000
_cell_length_c   7.64700000
_cell_angle_alpha   90.00000000
_cell_angle_beta   90.00000000
_cell_angle_gamma   120.00000000
_symmetry_Int_Tables_number   1
_chemical_formula_structural   Si
_chemical_formula_sum   Si15
_cell_volume   675.69462481
_cell_formula_units_Z   15
loop_
 _symmetry_equiv_pos_site_id
 _symmetry_equiv_pos_as_xyz
  1  'x, y, z'
loop_
 _atom_site_type_symbol
 _atom_site_label
 _atom_site_symmetry_multiplicity
 _atom_site_fract_x
 _atom_site_fract_y
 _atom_site_fract_z
 _atom_site_occupancy
  Si  Si0  1  0.28650000  0.57310000  0.00000000  1
  Si  Si1  1  0.42690000  0.71340000  0.66666667  1
  Si  Si2  1  0.28660000  0.71350000  0.33333333  1
  Si  Si3  1  0.57310000  0.28650000  0.66666667  1
  Si  Si4  1  0.71340000  0.42690000  0.00000000  1
  Si  Si5  1  0.71350000  0.28660000  0.33333333  1
  Si  Si6  1  0.71350000  0.42690000  0.00000000  1
  Si  Si7  1  0.57310000  0.28660000  0.66666667  1
  Si  Si8  1  0.71340000  0.28650000  0.33333333  1
  Si  Si9  1  0.42690000  0.71350000  0.66666667  1
  Si  Si10  1  0.28660000  0.57310000  0.00000000  1
  Si  Si11  1  0.28650000  0.71340000  0.33333333  1
  Si  Si12  1  0.00000000  0.50000000  0.16670000  1
  Si  Si13  1  0.50000000  0.50000000  0.83336667  1
  Si  Si14  1  0.50000000  0.00000000  0.50003333  1
