# generated using pymatgen
data_O2
_symmetry_space_group_name_H-M   'P 1'
_cell_length_a   10.10100000
_cell_length_b   10.10100000
_cell_length_c   7.64700000
_cell_angle_alpha   90.00000000
_cell_angle_beta   90.00000000
_cell_angle_gamma   120.00000000
_symmetry_Int_Tables_number   1
_chemical_formula_structural   O2
_chemical_formula_sum   O18
_cell_volume   675.69462481
_cell_formula_units_Z   9
loop_
 _symmetry_equiv_pos_site_id
 _symmetry_equiv_pos_as_xyz
  1  'x, y, z'
loop_
 _atom_site_type_symbol
 _atom_site_label
 _atom_site_symmetry_multiplicity
 _atom_site_fract_x
 _atom_site_fract_y
 _atom_site_fract_z
 _atom_site_occupancy
  O  O0  1  0.31710000  0.68290000  0.83330000  1
  O  O1  1  0.31710000  0.63420000  0.49996667  1
  O  O2  1  0.36580000  0.68290000  0.16663333  1
  O  O3  1  0.68290000  0.31710000  0.83336667  1
  O  O4  1  0.63420000  0.31710000  0.16670000  1
  O  O5  1  0.68290000  0.36580000  0.50003333  1
  O  O6  1  0.46430000  0.35700000  0.70950000  1
  O  O7  1  0.64300000  0.10730000  0.37616667  1
  O  O8  1  0.89270000  0.53570000  0.04283333  1
  O  O9  1  0.35700000  0.46430000  0.95716667  1
  O  O10  1  0.10730000  0.64300000  0.29050000  1
  O  O11  1  0.53570000  0.89270000  0.62383333  1
  O  O12  1  0.53570000  0.64300000  0.70950000  1
  O  O13  1  0.35700000  0.89270000  0.37616667  1
  O  O14  1  0.10730000  0.46430000  0.04283333  1
  O  O15  1  0.64300000  0.53570000  0.95716667  1
  O  O16  1  0.89270000  0.35700000  0.29050000  1
  O  O17  1  0.46430000  0.10730000  0.62383333  1
