# generated using pymatgen
data_SiO4
_symmetry_space_group_name_H-M   'P 1'
_cell_length_a   28.99600000
_cell_length_b   13.96800000
_cell_length_c   12.44900000
_cell_angle_alpha   90.00000000
_cell_angle_beta   104.91000000
_cell_angle_gamma   90.00000000
_symmetry_Int_Tables_number   1
_chemical_formula_structural   SiO4
_chemical_formula_sum   'Si1 O4'
_cell_volume   4872.28607835
_cell_formula_units_Z   1
loop_
 _symmetry_equiv_pos_site_id
 _symmetry_equiv_pos_as_xyz
  1  'x, y, z'
loop_
 _atom_site_type_symbol
 _atom_site_label
 _atom_site_symmetry_multiplicity
 _atom_site_fract_x
 _atom_site_fract_y
 _atom_site_fract_z
 _atom_site_occupancy
  Si  Si0  1  0.86240000  0.80430000  0.70760000  1
  O  O1  1  0.91940000  0.82030000  0.74110000  1
  O  O2  1  0.83790000  0.90620000  0.71610000  1
  O  O3  1  0.84340000  0.76240000  0.58370000  1
  O  O4  1  0.84790000  0.73300000  0.79510000  1
