# generated using pymatgen
data_Si
_symmetry_space_group_name_H-M   'P 1'
_cell_length_a   28.99600000
_cell_length_b   13.96800000
_cell_length_c   12.44900000
_cell_angle_alpha   90.00000000
_cell_angle_beta   104.91000000
_cell_angle_gamma   90.00000000
_symmetry_Int_Tables_number   1
_chemical_formula_structural   Si
_chemical_formula_sum   Si76
_cell_volume   4872.28607835
_cell_formula_units_Z   76
loop_
 _symmetry_equiv_pos_site_id
 _symmetry_equiv_pos_as_xyz
  1  'x, y, z'
loop_
 _atom_site_type_symbol
 _atom_site_label
 _atom_site_symmetry_multiplicity
 _atom_site_fract_x
 _atom_site_fract_y
 _atom_site_fract_z
 _atom_site_occupancy
  Si  Si0  1  0.45210000  0.60990000  0.83300000  1
  Si  Si1  1  0.95210000  0.10990000  0.83300000  1
  Si  Si2  1  0.54790000  0.60990000  0.16700000  1
  Si  Si3  1  0.04790000  0.10990000  0.16700000  1
  Si  Si4  1  0.54790000  0.39010000  0.16700000  1
  Si  Si5  1  0.04790000  0.89010000  0.16700000  1
  Si  Si6  1  0.45210000  0.39010000  0.83300000  1
  Si  Si7  1  0.95210000  0.89010000  0.83300000  1
  Si  Si8  1  0.44010000  0.60990000  0.07770000  1
  Si  Si9  1  0.94010000  0.10990000  0.07770000  1
  Si  Si10  1  0.55990000  0.60990000  0.92230000  1
  Si  Si11  1  0.05990000  0.10990000  0.92230000  1
  Si  Si12  1  0.55990000  0.39010000  0.92230000  1
  Si  Si13  1  0.05990000  0.89010000  0.92230000  1
  Si  Si14  1  0.44010000  0.39010000  0.07770000  1
  Si  Si15  1  0.94010000  0.89010000  0.07770000  1
  Si  Si16  1  0.29540000  0.79540000  0.24220000  1
  Si  Si17  1  0.79540000  0.29540000  0.24220000  1
  Si  Si18  1  0.70460000  0.79540000  0.75780000  1
  Si  Si19  1  0.20460000  0.29540000  0.75780000  1
  Si  Si20  1  0.70460000  0.20460000  0.75780000  1
  Si  Si21  1  0.20460000  0.70460000  0.75780000  1
  Si  Si22  1  0.29540000  0.20460000  0.24220000  1
  Si  Si23  1  0.79540000  0.70460000  0.24220000  1
  Si  Si24  1  0.30100000  0.79410000  0.49820000  1
  Si  Si25  1  0.80100000  0.29410000  0.49820000  1
  Si  Si26  1  0.69900000  0.79410000  0.50180000  1
  Si  Si27  1  0.19900000  0.29410000  0.50180000  1
  Si  Si28  1  0.69900000  0.20590000  0.50180000  1
  Si  Si29  1  0.19900000  0.70590000  0.50180000  1
  Si  Si30  1  0.30100000  0.20590000  0.49820000  1
  Si  Si31  1  0.80100000  0.70590000  0.49820000  1
  Si  Si32  1  0.30720000  0.79380000  0.85690000  1
  Si  Si33  1  0.80720000  0.29380000  0.85690000  1
  Si  Si34  1  0.69280000  0.79380000  0.14310000  1
  Si  Si35  1  0.19280000  0.29380000  0.14310000  1
  Si  Si36  1  0.69280000  0.20620000  0.14310000  1
  Si  Si37  1  0.19280000  0.70620000  0.14310000  1
  Si  Si38  1  0.30720000  0.20620000  0.85690000  1
  Si  Si39  1  0.80720000  0.70620000  0.85690000  1
  Si  Si40  1  0.34530000  0.69500000  0.08270000  1
  Si  Si41  1  0.84530000  0.19500000  0.08270000  1
  Si  Si42  1  0.65470000  0.69500000  0.91730000  1
  Si  Si43  1  0.15470000  0.19500000  0.91730000  1
  Si  Si44  1  0.65470000  0.30500000  0.91730000  1
  Si  Si45  1  0.15470000  0.80500000  0.91730000  1
  Si  Si46  1  0.34530000  0.30500000  0.08270000  1
  Si  Si47  1  0.84530000  0.80500000  0.08270000  1
  Si  Si48  1  0.36240000  0.69570000  0.70760000  1
  Si  Si49  1  0.86240000  0.19570000  0.70760000  1
  Si  Si50  1  0.63760000  0.69570000  0.29240000  1
  Si  Si51  1  0.13760000  0.19570000  0.29240000  1
  Si  Si52  1  0.63760000  0.30430000  0.29240000  1
  Si  Si53  1  0.13760000  0.80430000  0.29240000  1
  Si  Si54  1  0.36240000  0.30430000  0.70760000  1
  Si  Si55  1  0.86240000  0.80430000  0.70760000  1
  Si  Si56  1  0.26600000  0.00000000  0.78470000  1
  Si  Si57  1  0.76600000  0.50000000  0.78470000  1
  Si  Si58  1  0.73400000  0.00000000  0.21530000  1
  Si  Si59  1  0.23400000  0.50000000  0.21530000  1
  Si  Si60  1  0.22470000  0.50000000  0.82700000  1
  Si  Si61  1  0.72470000  0.00000000  0.82700000  1
  Si  Si62  1  0.77530000  0.50000000  0.17300000  1
  Si  Si63  1  0.27530000  0.00000000  0.17300000  1
  Si  Si64  1  0.30460000  0.50000000  0.69360000  1
  Si  Si65  1  0.80460000  0.00000000  0.69360000  1
  Si  Si66  1  0.69540000  0.50000000  0.30640000  1
  Si  Si67  1  0.19540000  0.00000000  0.30640000  1
  Si  Si68  1  0.22780000  0.50000000  0.46120000  1
  Si  Si69  1  0.72780000  0.00000000  0.46120000  1
  Si  Si70  1  0.77220000  0.50000000  0.53880000  1
  Si  Si71  1  0.27220000  0.00000000  0.53880000  1
  Si  Si72  1  0.29210000  0.50000000  0.05360000  1
  Si  Si73  1  0.79210000  0.00000000  0.05360000  1
  Si  Si74  1  0.70790000  0.50000000  0.94640000  1
  Si  Si75  1  0.20790000  0.00000000  0.94640000  1
