# generated using pymatgen
data_O2
_symmetry_space_group_name_H-M   'P 1'
_cell_length_a   28.99600000
_cell_length_b   13.96800000
_cell_length_c   12.44900000
_cell_angle_alpha   90.00000000
_cell_angle_beta   104.91000000
_cell_angle_gamma   90.00000000
_symmetry_Int_Tables_number   1
_chemical_formula_structural   O2
_chemical_formula_sum   O152
_cell_volume   4872.28607835
_cell_formula_units_Z   76
loop_
 _symmetry_equiv_pos_site_id
 _symmetry_equiv_pos_as_xyz
  1  'x, y, z'
loop_
 _atom_site_type_symbol
 _atom_site_label
 _atom_site_symmetry_multiplicity
 _atom_site_fract_x
 _atom_site_fract_y
 _atom_site_fract_z
 _atom_site_occupancy
  O  O0  1  0.41940000  0.67970000  0.74110000  1
  O  O1  1  0.91940000  0.17970000  0.74110000  1
  O  O2  1  0.58060000  0.67970000  0.25890000  1
  O  O3  1  0.08060000  0.17970000  0.25890000  1
  O  O4  1  0.58060000  0.32030000  0.25890000  1
  O  O5  1  0.08060000  0.82030000  0.25890000  1
  O  O6  1  0.41940000  0.32030000  0.74110000  1
  O  O7  1  0.91940000  0.82030000  0.74110000  1
  O  O8  1  0.50760000  0.62900000  0.84150000  1
  O  O9  1  0.00760000  0.12900000  0.84150000  1
  O  O10  1  0.49240000  0.62900000  0.15850000  1
  O  O11  1  0.99240000  0.12900000  0.15850000  1
  O  O12  1  0.49240000  0.37100000  0.15850000  1
  O  O13  1  0.99240000  0.87100000  0.15850000  1
  O  O14  1  0.50760000  0.37100000  0.84150000  1
  O  O15  1  0.00760000  0.87100000  0.84150000  1
  O  O16  1  0.43940000  0.50000000  0.79880000  1
  O  O17  1  0.93940000  0.00000000  0.79880000  1
  O  O18  1  0.56060000  0.50000000  0.20120000  1
  O  O19  1  0.06060000  0.00000000  0.20120000  1
  O  O20  1  0.44140000  0.63100000  0.95140000  1
  O  O21  1  0.94140000  0.13100000  0.95140000  1
  O  O22  1  0.55860000  0.63100000  0.04860000  1
  O  O23  1  0.05860000  0.13100000  0.04860000  1
  O  O24  1  0.55860000  0.36900000  0.04860000  1
  O  O25  1  0.05860000  0.86900000  0.04860000  1
  O  O26  1  0.44140000  0.36900000  0.95140000  1
  O  O27  1  0.94140000  0.86900000  0.95140000  1
  O  O28  1  0.40230000  0.68090000  0.11120000  1
  O  O29  1  0.90230000  0.18090000  0.11120000  1
  O  O30  1  0.59770000  0.68090000  0.88880000  1
  O  O31  1  0.09770000  0.18090000  0.88880000  1
  O  O32  1  0.59770000  0.31910000  0.88880000  1
  O  O33  1  0.09770000  0.81910000  0.88880000  1
  O  O34  1  0.40230000  0.31910000  0.11120000  1
  O  O35  1  0.90230000  0.81910000  0.11120000  1
  O  O36  1  0.42520000  0.50000000  0.08900000  1
  O  O37  1  0.92520000  0.00000000  0.08900000  1
  O  O38  1  0.57480000  0.50000000  0.91100000  1
  O  O39  1  0.07480000  0.00000000  0.91100000  1
  O  O40  1  0.21730000  0.00000000  0.82440000  1
  O  O41  1  0.71730000  0.50000000  0.82440000  1
  O  O42  1  0.78270000  0.00000000  0.17560000  1
  O  O43  1  0.28270000  0.50000000  0.17560000  1
  O  O44  1  0.29570000  0.90600000  0.83550000  1
  O  O45  1  0.79570000  0.40600000  0.83550000  1
  O  O46  1  0.70430000  0.90600000  0.16450000  1
  O  O47  1  0.20430000  0.40600000  0.16450000  1
  O  O48  1  0.70430000  0.09400000  0.16450000  1
  O  O49  1  0.20430000  0.59400000  0.16450000  1
  O  O50  1  0.29570000  0.09400000  0.83550000  1
  O  O51  1  0.79570000  0.59400000  0.83550000  1
  O  O52  1  0.25460000  0.00000000  0.65120000  1
  O  O53  1  0.75460000  0.50000000  0.65120000  1
  O  O54  1  0.74540000  0.00000000  0.34880000  1
  O  O55  1  0.24540000  0.50000000  0.34880000  1
  O  O56  1  0.19410000  0.40480000  0.78530000  1
  O  O57  1  0.69410000  0.90480000  0.78530000  1
  O  O58  1  0.80590000  0.40480000  0.21470000  1
  O  O59  1  0.30590000  0.90480000  0.21470000  1
  O  O60  1  0.80590000  0.59520000  0.21470000  1
  O  O61  1  0.30590000  0.09520000  0.21470000  1
  O  O62  1  0.19410000  0.59520000  0.78530000  1
  O  O63  1  0.69410000  0.09520000  0.78530000  1
  O  O64  1  0.27080000  0.50000000  0.77760000  1
  O  O65  1  0.77080000  0.00000000  0.77760000  1
  O  O66  1  0.72920000  0.50000000  0.22240000  1
  O  O67  1  0.22920000  0.00000000  0.22240000  1
  O  O68  1  0.24180000  0.50000000  0.96080000  1
  O  O69  1  0.74180000  0.00000000  0.96080000  1
  O  O70  1  0.75820000  0.50000000  0.03920000  1
  O  O71  1  0.25820000  0.00000000  0.03920000  1
  O  O72  1  0.27360000  0.50000000  0.56640000  1
  O  O73  1  0.77360000  0.00000000  0.56640000  1
  O  O74  1  0.72640000  0.50000000  0.43360000  1
  O  O75  1  0.22640000  0.00000000  0.43360000  1
  O  O76  1  0.33790000  0.40620000  0.71610000  1
  O  O77  1  0.83790000  0.90620000  0.71610000  1
  O  O78  1  0.66210000  0.40620000  0.28390000  1
  O  O79  1  0.16210000  0.90620000  0.28390000  1
  O  O80  1  0.66210000  0.59380000  0.28390000  1
  O  O81  1  0.16210000  0.09380000  0.28390000  1
  O  O82  1  0.33790000  0.59380000  0.71610000  1
  O  O83  1  0.83790000  0.09380000  0.71610000  1
  O  O84  1  0.19670000  0.40550000  0.46700000  1
  O  O85  1  0.69670000  0.90550000  0.46700000  1
  O  O86  1  0.80330000  0.40550000  0.53300000  1
  O  O87  1  0.30330000  0.90550000  0.53300000  1
  O  O88  1  0.80330000  0.59450000  0.53300000  1
  O  O89  1  0.30330000  0.09450000  0.53300000  1
  O  O90  1  0.19670000  0.59450000  0.46700000  1
  O  O91  1  0.69670000  0.09450000  0.46700000  1
  O  O92  1  0.32880000  0.72540000  0.19190000  1
  O  O93  1  0.82880000  0.22540000  0.19190000  1
  O  O94  1  0.67120000  0.72540000  0.80810000  1
  O  O95  1  0.17120000  0.22540000  0.80810000  1
  O  O96  1  0.67120000  0.27460000  0.80810000  1
  O  O97  1  0.17120000  0.77460000  0.80810000  1
  O  O98  1  0.32880000  0.27460000  0.19190000  1
  O  O99  1  0.82880000  0.77460000  0.19190000  1
  O  O100  1  0.24010000  0.76930000  0.19020000  1
  O  O101  1  0.74010000  0.26930000  0.19020000  1
  O  O102  1  0.75990000  0.76930000  0.80980000  1
  O  O103  1  0.25990000  0.26930000  0.80980000  1
  O  O104  1  0.75990000  0.23070000  0.80980000  1
  O  O105  1  0.25990000  0.73070000  0.80980000  1
  O  O106  1  0.24010000  0.23070000  0.19020000  1
  O  O107  1  0.74010000  0.73070000  0.19020000  1
  O  O108  1  0.30850000  0.78300000  0.37510000  1
  O  O109  1  0.80850000  0.28300000  0.37510000  1
  O  O110  1  0.69150000  0.78300000  0.62490000  1
  O  O111  1  0.19150000  0.28300000  0.62490000  1
  O  O112  1  0.69150000  0.21700000  0.62490000  1
  O  O113  1  0.19150000  0.71700000  0.62490000  1
  O  O114  1  0.30850000  0.21700000  0.37510000  1
  O  O115  1  0.80850000  0.71700000  0.37510000  1
  O  O116  1  0.34340000  0.73760000  0.58370000  1
  O  O117  1  0.84340000  0.23760000  0.58370000  1
  O  O118  1  0.65660000  0.73760000  0.41630000  1
  O  O119  1  0.15660000  0.23760000  0.41630000  1
  O  O120  1  0.65660000  0.26240000  0.41630000  1
  O  O121  1  0.15660000  0.76240000  0.41630000  1
  O  O122  1  0.34340000  0.26240000  0.58370000  1
  O  O123  1  0.84340000  0.76240000  0.58370000  1
  O  O124  1  0.25000000  0.75000000  0.50000000  1
  O  O125  1  0.75000000  0.25000000  0.50000000  1
  O  O126  1  0.75000000  0.75000000  0.50000000  1
  O  O127  1  0.25000000  0.25000000  0.50000000  1
  O  O128  1  0.34790000  0.76700000  0.79510000  1
  O  O129  1  0.84790000  0.26700000  0.79510000  1
  O  O130  1  0.65210000  0.76700000  0.20490000  1
  O  O131  1  0.15210000  0.26700000  0.20490000  1
  O  O132  1  0.65210000  0.23300000  0.20490000  1
  O  O133  1  0.15210000  0.73300000  0.20490000  1
  O  O134  1  0.34790000  0.23300000  0.79510000  1
  O  O135  1  0.84790000  0.73300000  0.79510000  1
  O  O136  1  0.32810000  0.77530000  0.98810000  1
  O  O137  1  0.82810000  0.27530000  0.98810000  1
  O  O138  1  0.67190000  0.77530000  0.01190000  1
  O  O139  1  0.17190000  0.27530000  0.01190000  1
  O  O140  1  0.67190000  0.22470000  0.01190000  1
  O  O141  1  0.17190000  0.72470000  0.01190000  1
  O  O142  1  0.32810000  0.22470000  0.98810000  1
  O  O143  1  0.82810000  0.72470000  0.98810000  1
  O  O144  1  0.32120000  0.59430000  0.03640000  1
  O  O145  1  0.82120000  0.09430000  0.03640000  1
  O  O146  1  0.67880000  0.59430000  0.96360000  1
  O  O147  1  0.17880000  0.09430000  0.96360000  1
  O  O148  1  0.67880000  0.40570000  0.96360000  1
  O  O149  1  0.17880000  0.90570000  0.96360000  1
  O  O150  1  0.32120000  0.40570000  0.03640000  1
  O  O151  1  0.82120000  0.90570000  0.03640000  1
