# generated using pymatgen
data_SiO4
_symmetry_space_group_name_H-M   'P 1'
_cell_length_a   14.97000000
_cell_length_b   14.97000000
_cell_length_c   14.97000000
_cell_angle_alpha   90.00000000
_cell_angle_beta   90.00000000
_cell_angle_gamma   90.00000000
_symmetry_Int_Tables_number   1
_chemical_formula_structural   SiO4
_chemical_formula_sum   'Si1 O4'
_cell_volume   3354.79047300
_cell_formula_units_Z   1
loop_
 _symmetry_equiv_pos_site_id
 _symmetry_equiv_pos_as_xyz
  1  'x, y, z'
loop_
 _atom_site_type_symbol
 _atom_site_label
 _atom_site_symmetry_multiplicity
 _atom_site_fract_x
 _atom_site_fract_y
 _atom_site_fract_z
 _atom_site_occupancy
  Si  Si0  1  0.62900000  0.77010000  0.07310000  1
  O  O1  1  0.57690000  0.75100000  -0.01920000  1
  O  O2  1  0.67920000  0.67970000  0.10320000  1
  O  O3  1  0.56020000  0.79950000  0.15050000  1
  O  O4  1  0.70050000  0.84950000  0.06020000  1
