# generated using pymatgen
data_SiO4
_symmetry_space_group_name_H-M   'P 1'
_cell_length_a   14.97000000
_cell_length_b   14.97000000
_cell_length_c   14.97000000
_cell_angle_alpha   90.00000000
_cell_angle_beta   90.00000000
_cell_angle_gamma   90.00000000
_symmetry_Int_Tables_number   1
_chemical_formula_structural   SiO4
_chemical_formula_sum   'Si1 O4'
_cell_volume   3354.79047300
_cell_formula_units_Z   1
loop_
 _symmetry_equiv_pos_site_id
 _symmetry_equiv_pos_as_xyz
  1  'x, y, z'
loop_
 _atom_site_type_symbol
 _atom_site_label
 _atom_site_symmetry_multiplicity
 _atom_site_fract_x
 _atom_site_fract_y
 _atom_site_fract_z
 _atom_site_occupancy
  Si  Si0  1  0.66200000  0.92090000  0.56910000  1
  O  O1  1  0.58490000  0.96690000  0.62860000  1
  O  O2  1  0.62860000  0.91510000  0.46690000  1
  O  O3  1  0.75100000  0.98080000  0.57690000  1
  O  O4  1  0.67920000  0.82030000  0.60320000  1
