# generated using pymatgen
data_Si
_symmetry_space_group_name_H-M   'P 1'
_cell_length_a   27.82600000
_cell_length_b   26.08100000
_cell_length_c   13.94400000
_cell_angle_alpha   90.00000000
_cell_angle_beta   90.00000000
_cell_angle_gamma   90.00000000
_symmetry_Int_Tables_number   1
_chemical_formula_structural   Si
_chemical_formula_sum   Si152
_cell_volume   10119.57780926
_cell_formula_units_Z   152
loop_
 _symmetry_equiv_pos_site_id
 _symmetry_equiv_pos_as_xyz
  1  'x, y, z'
loop_
 _atom_site_type_symbol
 _atom_site_label
 _atom_site_symmetry_multiplicity
 _atom_site_fract_x
 _atom_site_fract_y
 _atom_site_fract_z
 _atom_site_occupancy
  Si  Si0  1  0.14570000  0.09850000  0.19830000  1
  Si  Si1  1  0.14570000  0.59850000  0.69830000  1
  Si  Si2  1  0.64570000  0.59850000  0.19830000  1
  Si  Si3  1  0.64570000  0.09850000  0.69830000  1
  Si  Si4  1  0.85430000  0.09850000  0.19830000  1
  Si  Si5  1  0.85430000  0.59850000  0.69830000  1
  Si  Si6  1  0.35430000  0.59850000  0.19830000  1
  Si  Si7  1  0.35430000  0.09850000  0.69830000  1
  Si  Si8  1  0.14570000  0.90150000  0.19830000  1
  Si  Si9  1  0.14570000  0.40150000  0.69830000  1
  Si  Si10  1  0.64570000  0.40150000  0.19830000  1
  Si  Si11  1  0.64570000  0.90150000  0.69830000  1
  Si  Si12  1  0.85430000  0.90150000  0.19830000  1
  Si  Si13  1  0.85430000  0.40150000  0.69830000  1
  Si  Si14  1  0.35430000  0.40150000  0.19830000  1
  Si  Si15  1  0.35430000  0.90150000  0.69830000  1
  Si  Si16  1  0.85430000  0.90150000  0.80170000  1
  Si  Si17  1  0.85430000  0.40150000  0.30170000  1
  Si  Si18  1  0.35430000  0.40150000  0.80170000  1
  Si  Si19  1  0.35430000  0.90150000  0.30170000  1
  Si  Si20  1  0.14570000  0.90150000  0.80170000  1
  Si  Si21  1  0.14570000  0.40150000  0.30170000  1
  Si  Si22  1  0.64570000  0.40150000  0.80170000  1
  Si  Si23  1  0.64570000  0.90150000  0.30170000  1
  Si  Si24  1  0.85430000  0.09850000  0.80170000  1
  Si  Si25  1  0.85430000  0.59850000  0.30170000  1
  Si  Si26  1  0.35430000  0.59850000  0.80170000  1
  Si  Si27  1  0.35430000  0.09850000  0.30170000  1
  Si  Si28  1  0.14570000  0.09850000  0.80170000  1
  Si  Si29  1  0.14570000  0.59850000  0.30170000  1
  Si  Si30  1  0.64570000  0.59850000  0.80170000  1
  Si  Si31  1  0.64570000  0.09850000  0.30170000  1
  Si  Si32  1  0.05510000  0.06010000  0.10950000  1
  Si  Si33  1  0.05510000  0.56010000  0.60950000  1
  Si  Si34  1  0.55510000  0.56010000  0.10950000  1
  Si  Si35  1  0.55510000  0.06010000  0.60950000  1
  Si  Si36  1  0.94490000  0.06010000  0.10950000  1
  Si  Si37  1  0.94490000  0.56010000  0.60950000  1
  Si  Si38  1  0.44490000  0.56010000  0.10950000  1
  Si  Si39  1  0.44490000  0.06010000  0.60950000  1
  Si  Si40  1  0.05510000  0.93990000  0.10950000  1
  Si  Si41  1  0.05510000  0.43990000  0.60950000  1
  Si  Si42  1  0.55510000  0.43990000  0.10950000  1
  Si  Si43  1  0.55510000  0.93990000  0.60950000  1
  Si  Si44  1  0.94490000  0.93990000  0.10950000  1
  Si  Si45  1  0.94490000  0.43990000  0.60950000  1
  Si  Si46  1  0.44490000  0.43990000  0.10950000  1
  Si  Si47  1  0.44490000  0.93990000  0.60950000  1
  Si  Si48  1  0.94490000  0.93990000  0.89050000  1
  Si  Si49  1  0.94490000  0.43990000  0.39050000  1
  Si  Si50  1  0.44490000  0.43990000  0.89050000  1
  Si  Si51  1  0.44490000  0.93990000  0.39050000  1
  Si  Si52  1  0.05510000  0.93990000  0.89050000  1
  Si  Si53  1  0.05510000  0.43990000  0.39050000  1
  Si  Si54  1  0.55510000  0.43990000  0.89050000  1
  Si  Si55  1  0.55510000  0.93990000  0.39050000  1
  Si  Si56  1  0.94490000  0.06010000  0.89050000  1
  Si  Si57  1  0.94490000  0.56010000  0.39050000  1
  Si  Si58  1  0.44490000  0.56010000  0.89050000  1
  Si  Si59  1  0.44490000  0.06010000  0.39050000  1
  Si  Si60  1  0.05510000  0.06010000  0.89050000  1
  Si  Si61  1  0.05510000  0.56010000  0.39050000  1
  Si  Si62  1  0.55510000  0.56010000  0.89050000  1
  Si  Si63  1  0.55510000  0.06010000  0.39050000  1
  Si  Si64  1  0.30300000  0.19360000  0.21200000  1
  Si  Si65  1  0.30300000  0.69360000  0.71200000  1
  Si  Si66  1  0.80300000  0.69360000  0.21200000  1
  Si  Si67  1  0.80300000  0.19360000  0.71200000  1
  Si  Si68  1  0.69700000  0.19360000  0.21200000  1
  Si  Si69  1  0.69700000  0.69360000  0.71200000  1
  Si  Si70  1  0.19700000  0.69360000  0.21200000  1
  Si  Si71  1  0.19700000  0.19360000  0.71200000  1
  Si  Si72  1  0.30300000  0.80640000  0.21200000  1
  Si  Si73  1  0.30300000  0.30640000  0.71200000  1
  Si  Si74  1  0.80300000  0.30640000  0.21200000  1
  Si  Si75  1  0.80300000  0.80640000  0.71200000  1
  Si  Si76  1  0.69700000  0.80640000  0.21200000  1
  Si  Si77  1  0.69700000  0.30640000  0.71200000  1
  Si  Si78  1  0.19700000  0.30640000  0.21200000  1
  Si  Si79  1  0.19700000  0.80640000  0.71200000  1
  Si  Si80  1  0.69700000  0.80640000  0.78800000  1
  Si  Si81  1  0.69700000  0.30640000  0.28800000  1
  Si  Si82  1  0.19700000  0.30640000  0.78800000  1
  Si  Si83  1  0.19700000  0.80640000  0.28800000  1
  Si  Si84  1  0.30300000  0.80640000  0.78800000  1
  Si  Si85  1  0.30300000  0.30640000  0.28800000  1
  Si  Si86  1  0.80300000  0.30640000  0.78800000  1
  Si  Si87  1  0.80300000  0.80640000  0.28800000  1
  Si  Si88  1  0.69700000  0.19360000  0.78800000  1
  Si  Si89  1  0.69700000  0.69360000  0.28800000  1
  Si  Si90  1  0.19700000  0.69360000  0.78800000  1
  Si  Si91  1  0.19700000  0.19360000  0.28800000  1
  Si  Si92  1  0.30300000  0.19360000  0.78800000  1
  Si  Si93  1  0.30300000  0.69360000  0.28800000  1
  Si  Si94  1  0.80300000  0.69360000  0.78800000  1
  Si  Si95  1  0.80300000  0.19360000  0.28800000  1
  Si  Si96  1  0.27550000  0.19480000  0.00000000  1
  Si  Si97  1  0.27550000  0.69480000  0.50000000  1
  Si  Si98  1  0.77550000  0.69480000  0.00000000  1
  Si  Si99  1  0.77550000  0.19480000  0.50000000  1
  Si  Si100  1  0.72450000  0.19480000  0.00000000  1
  Si  Si101  1  0.72450000  0.69480000  0.50000000  1
  Si  Si102  1  0.22450000  0.69480000  0.00000000  1
  Si  Si103  1  0.22450000  0.19480000  0.50000000  1
  Si  Si104  1  0.27550000  0.80520000  0.00000000  1
  Si  Si105  1  0.27550000  0.30520000  0.50000000  1
  Si  Si106  1  0.77550000  0.30520000  0.00000000  1
  Si  Si107  1  0.77550000  0.80520000  0.50000000  1
  Si  Si108  1  0.72450000  0.80520000  0.00000000  1
  Si  Si109  1  0.72450000  0.30520000  0.50000000  1
  Si  Si110  1  0.22450000  0.30520000  0.00000000  1
  Si  Si111  1  0.22450000  0.80520000  0.50000000  1
  Si  Si112  1  0.20340000  0.09940000  0.00000000  1
  Si  Si113  1  0.20340000  0.59940000  0.50000000  1
  Si  Si114  1  0.70340000  0.59940000  0.00000000  1
  Si  Si115  1  0.70340000  0.09940000  0.50000000  1
  Si  Si116  1  0.79660000  0.09940000  0.00000000  1
  Si  Si117  1  0.79660000  0.59940000  0.50000000  1
  Si  Si118  1  0.29660000  0.59940000  0.00000000  1
  Si  Si119  1  0.29660000  0.09940000  0.50000000  1
  Si  Si120  1  0.20340000  0.90060000  0.00000000  1
  Si  Si121  1  0.20340000  0.40060000  0.50000000  1
  Si  Si122  1  0.70340000  0.40060000  0.00000000  1
  Si  Si123  1  0.70340000  0.90060000  0.50000000  1
  Si  Si124  1  0.79660000  0.90060000  0.00000000  1
  Si  Si125  1  0.79660000  0.40060000  0.50000000  1
  Si  Si126  1  0.29660000  0.40060000  0.00000000  1
  Si  Si127  1  0.29660000  0.90060000  0.50000000  1
  Si  Si128  1  0.30420000  0.00000000  0.21010000  1
  Si  Si129  1  0.30420000  0.50000000  0.71010000  1
  Si  Si130  1  0.80420000  0.50000000  0.21010000  1
  Si  Si131  1  0.80420000  0.00000000  0.71010000  1
  Si  Si132  1  0.69580000  0.00000000  0.21010000  1
  Si  Si133  1  0.69580000  0.50000000  0.71010000  1
  Si  Si134  1  0.19580000  0.50000000  0.21010000  1
  Si  Si135  1  0.19580000  0.00000000  0.71010000  1
  Si  Si136  1  0.69580000  0.00000000  0.78990000  1
  Si  Si137  1  0.69580000  0.50000000  0.28990000  1
  Si  Si138  1  0.19580000  0.50000000  0.78990000  1
  Si  Si139  1  0.19580000  0.00000000  0.28990000  1
  Si  Si140  1  0.30420000  0.00000000  0.78990000  1
  Si  Si141  1  0.30420000  0.50000000  0.28990000  1
  Si  Si142  1  0.80420000  0.50000000  0.78990000  1
  Si  Si143  1  0.80420000  0.00000000  0.28990000  1
  Si  Si144  1  0.27160000  0.00000000  0.00000000  1
  Si  Si145  1  0.27160000  0.50000000  0.50000000  1
  Si  Si146  1  0.77160000  0.50000000  0.00000000  1
  Si  Si147  1  0.77160000  0.00000000  0.50000000  1
  Si  Si148  1  0.72840000  0.00000000  0.00000000  1
  Si  Si149  1  0.72840000  0.50000000  0.50000000  1
  Si  Si150  1  0.22840000  0.50000000  0.00000000  1
  Si  Si151  1  0.22840000  0.00000000  0.50000000  1
