# generated using pymatgen
data_O2
_symmetry_space_group_name_H-M   'P 1'
_cell_length_a   27.82600000
_cell_length_b   26.08100000
_cell_length_c   13.94400000
_cell_angle_alpha   90.00000000
_cell_angle_beta   90.00000000
_cell_angle_gamma   90.00000000
_symmetry_Int_Tables_number   1
_chemical_formula_structural   O2
_chemical_formula_sum   O304
_cell_volume   10119.57780926
_cell_formula_units_Z   152
loop_
 _symmetry_equiv_pos_site_id
 _symmetry_equiv_pos_as_xyz
  1  'x, y, z'
loop_
 _atom_site_type_symbol
 _atom_site_label
 _atom_site_symmetry_multiplicity
 _atom_site_fract_x
 _atom_site_fract_y
 _atom_site_fract_z
 _atom_site_occupancy
  O  O0  1  0.08870000  0.09200000  0.18240000  1
  O  O1  1  0.08870000  0.59200000  0.68240000  1
  O  O2  1  0.58870000  0.59200000  0.18240000  1
  O  O3  1  0.58870000  0.09200000  0.68240000  1
  O  O4  1  0.91130000  0.09200000  0.18240000  1
  O  O5  1  0.91130000  0.59200000  0.68240000  1
  O  O6  1  0.41130000  0.59200000  0.18240000  1
  O  O7  1  0.41130000  0.09200000  0.68240000  1
  O  O8  1  0.08870000  0.90800000  0.18240000  1
  O  O9  1  0.08870000  0.40800000  0.68240000  1
  O  O10  1  0.58870000  0.40800000  0.18240000  1
  O  O11  1  0.58870000  0.90800000  0.68240000  1
  O  O12  1  0.91130000  0.90800000  0.18240000  1
  O  O13  1  0.91130000  0.40800000  0.68240000  1
  O  O14  1  0.41130000  0.40800000  0.18240000  1
  O  O15  1  0.41130000  0.90800000  0.68240000  1
  O  O16  1  0.91130000  0.90800000  0.81760000  1
  O  O17  1  0.91130000  0.40800000  0.31760000  1
  O  O18  1  0.41130000  0.40800000  0.81760000  1
  O  O19  1  0.41130000  0.90800000  0.31760000  1
  O  O20  1  0.08870000  0.90800000  0.81760000  1
  O  O21  1  0.08870000  0.40800000  0.31760000  1
  O  O22  1  0.58870000  0.40800000  0.81760000  1
  O  O23  1  0.58870000  0.90800000  0.31760000  1
  O  O24  1  0.91130000  0.09200000  0.81760000  1
  O  O25  1  0.91130000  0.59200000  0.31760000  1
  O  O26  1  0.41130000  0.59200000  0.81760000  1
  O  O27  1  0.41130000  0.09200000  0.31760000  1
  O  O28  1  0.08870000  0.09200000  0.81760000  1
  O  O29  1  0.08870000  0.59200000  0.31760000  1
  O  O30  1  0.58870000  0.59200000  0.81760000  1
  O  O31  1  0.58870000  0.09200000  0.31760000  1
  O  O32  1  0.16990000  0.09790000  0.09360000  1
  O  O33  1  0.16990000  0.59790000  0.59360000  1
  O  O34  1  0.66990000  0.59790000  0.09360000  1
  O  O35  1  0.66990000  0.09790000  0.59360000  1
  O  O36  1  0.83010000  0.09790000  0.09360000  1
  O  O37  1  0.83010000  0.59790000  0.59360000  1
  O  O38  1  0.33010000  0.59790000  0.09360000  1
  O  O39  1  0.33010000  0.09790000  0.59360000  1
  O  O40  1  0.16990000  0.90210000  0.09360000  1
  O  O41  1  0.16990000  0.40210000  0.59360000  1
  O  O42  1  0.66990000  0.40210000  0.09360000  1
  O  O43  1  0.66990000  0.90210000  0.59360000  1
  O  O44  1  0.83010000  0.90210000  0.09360000  1
  O  O45  1  0.83010000  0.40210000  0.59360000  1
  O  O46  1  0.33010000  0.40210000  0.09360000  1
  O  O47  1  0.33010000  0.90210000  0.59360000  1
  O  O48  1  0.83010000  0.90210000  0.90640000  1
  O  O49  1  0.83010000  0.40210000  0.40640000  1
  O  O50  1  0.33010000  0.40210000  0.90640000  1
  O  O51  1  0.33010000  0.90210000  0.40640000  1
  O  O52  1  0.16990000  0.90210000  0.90640000  1
  O  O53  1  0.16990000  0.40210000  0.40640000  1
  O  O54  1  0.66990000  0.40210000  0.90640000  1
  O  O55  1  0.66990000  0.90210000  0.40640000  1
  O  O56  1  0.83010000  0.09790000  0.90640000  1
  O  O57  1  0.83010000  0.59790000  0.40640000  1
  O  O58  1  0.33010000  0.59790000  0.90640000  1
  O  O59  1  0.33010000  0.09790000  0.40640000  1
  O  O60  1  0.16990000  0.09790000  0.90640000  1
  O  O61  1  0.16990000  0.59790000  0.40640000  1
  O  O62  1  0.66990000  0.59790000  0.90640000  1
  O  O63  1  0.66990000  0.09790000  0.40640000  1
  O  O64  1  0.15870000  0.15240000  0.24790000  1
  O  O65  1  0.15870000  0.65240000  0.74790000  1
  O  O66  1  0.65870000  0.65240000  0.24790000  1
  O  O67  1  0.65870000  0.15240000  0.74790000  1
  O  O68  1  0.84130000  0.15240000  0.24790000  1
  O  O69  1  0.84130000  0.65240000  0.74790000  1
  O  O70  1  0.34130000  0.65240000  0.24790000  1
  O  O71  1  0.34130000  0.15240000  0.74790000  1
  O  O72  1  0.15870000  0.84760000  0.24790000  1
  O  O73  1  0.15870000  0.34760000  0.74790000  1
  O  O74  1  0.65870000  0.34760000  0.24790000  1
  O  O75  1  0.65870000  0.84760000  0.74790000  1
  O  O76  1  0.84130000  0.84760000  0.24790000  1
  O  O77  1  0.84130000  0.34760000  0.74790000  1
  O  O78  1  0.34130000  0.34760000  0.24790000  1
  O  O79  1  0.34130000  0.84760000  0.74790000  1
  O  O80  1  0.84130000  0.84760000  0.75210000  1
  O  O81  1  0.84130000  0.34760000  0.25210000  1
  O  O82  1  0.34130000  0.34760000  0.75210000  1
  O  O83  1  0.34130000  0.84760000  0.25210000  1
  O  O84  1  0.15870000  0.84760000  0.75210000  1
  O  O85  1  0.15870000  0.34760000  0.25210000  1
  O  O86  1  0.65870000  0.34760000  0.75210000  1
  O  O87  1  0.65870000  0.84760000  0.25210000  1
  O  O88  1  0.84130000  0.15240000  0.75210000  1
  O  O89  1  0.84130000  0.65240000  0.25210000  1
  O  O90  1  0.34130000  0.65240000  0.75210000  1
  O  O91  1  0.34130000  0.15240000  0.25210000  1
  O  O92  1  0.15870000  0.15240000  0.75210000  1
  O  O93  1  0.15870000  0.65240000  0.25210000  1
  O  O94  1  0.65870000  0.65240000  0.75210000  1
  O  O95  1  0.65870000  0.15240000  0.25210000  1
  O  O96  1  0.16710000  0.05060000  0.25700000  1
  O  O97  1  0.16710000  0.55060000  0.75700000  1
  O  O98  1  0.66710000  0.55060000  0.25700000  1
  O  O99  1  0.66710000  0.05060000  0.75700000  1
  O  O100  1  0.83290000  0.05060000  0.25700000  1
  O  O101  1  0.83290000  0.55060000  0.75700000  1
  O  O102  1  0.33290000  0.55060000  0.25700000  1
  O  O103  1  0.33290000  0.05060000  0.75700000  1
  O  O104  1  0.16710000  0.94940000  0.25700000  1
  O  O105  1  0.16710000  0.44940000  0.75700000  1
  O  O106  1  0.66710000  0.44940000  0.25700000  1
  O  O107  1  0.66710000  0.94940000  0.75700000  1
  O  O108  1  0.83290000  0.94940000  0.25700000  1
  O  O109  1  0.83290000  0.44940000  0.75700000  1
  O  O110  1  0.33290000  0.44940000  0.25700000  1
  O  O111  1  0.33290000  0.94940000  0.75700000  1
  O  O112  1  0.83290000  0.94940000  0.74300000  1
  O  O113  1  0.83290000  0.44940000  0.24300000  1
  O  O114  1  0.33290000  0.44940000  0.74300000  1
  O  O115  1  0.33290000  0.94940000  0.24300000  1
  O  O116  1  0.16710000  0.94940000  0.74300000  1
  O  O117  1  0.16710000  0.44940000  0.24300000  1
  O  O118  1  0.66710000  0.44940000  0.74300000  1
  O  O119  1  0.66710000  0.94940000  0.24300000  1
  O  O120  1  0.83290000  0.05060000  0.74300000  1
  O  O121  1  0.83290000  0.55060000  0.24300000  1
  O  O122  1  0.33290000  0.55060000  0.74300000  1
  O  O123  1  0.33290000  0.05060000  0.24300000  1
  O  O124  1  0.16710000  0.05060000  0.74300000  1
  O  O125  1  0.16710000  0.55060000  0.24300000  1
  O  O126  1  0.66710000  0.55060000  0.74300000  1
  O  O127  1  0.66710000  0.05060000  0.24300000  1
  O  O128  1  0.25000000  0.00000000  0.25000000  1
  O  O129  1  0.25000000  0.50000000  0.75000000  1
  O  O130  1  0.75000000  0.50000000  0.25000000  1
  O  O131  1  0.75000000  0.00000000  0.75000000  1
  O  O132  1  0.75000000  0.00000000  0.25000000  1
  O  O133  1  0.75000000  0.50000000  0.75000000  1
  O  O134  1  0.25000000  0.50000000  0.25000000  1
  O  O135  1  0.25000000  0.00000000  0.75000000  1
  O  O136  1  0.30470000  0.00000000  0.09460000  1
  O  O137  1  0.30470000  0.50000000  0.59460000  1
  O  O138  1  0.80470000  0.50000000  0.09460000  1
  O  O139  1  0.80470000  0.00000000  0.59460000  1
  O  O140  1  0.69530000  0.00000000  0.09460000  1
  O  O141  1  0.69530000  0.50000000  0.59460000  1
  O  O142  1  0.19530000  0.50000000  0.09460000  1
  O  O143  1  0.19530000  0.00000000  0.59460000  1
  O  O144  1  0.69530000  0.00000000  0.90540000  1
  O  O145  1  0.69530000  0.50000000  0.40540000  1
  O  O146  1  0.19530000  0.50000000  0.90540000  1
  O  O147  1  0.19530000  0.00000000  0.40540000  1
  O  O148  1  0.30470000  0.00000000  0.90540000  1
  O  O149  1  0.30470000  0.50000000  0.40540000  1
  O  O150  1  0.80470000  0.50000000  0.90540000  1
  O  O151  1  0.80470000  0.00000000  0.40540000  1
  O  O152  1  0.06030000  0.00000000  0.13370000  1
  O  O153  1  0.06030000  0.50000000  0.63370000  1
  O  O154  1  0.56030000  0.50000000  0.13370000  1
  O  O155  1  0.56030000  0.00000000  0.63370000  1
  O  O156  1  0.93970000  0.00000000  0.13370000  1
  O  O157  1  0.93970000  0.50000000  0.63370000  1
  O  O158  1  0.43970000  0.50000000  0.13370000  1
  O  O159  1  0.43970000  0.00000000  0.63370000  1
  O  O160  1  0.93970000  0.00000000  0.86630000  1
  O  O161  1  0.93970000  0.50000000  0.36630000  1
  O  O162  1  0.43970000  0.50000000  0.86630000  1
  O  O163  1  0.43970000  0.00000000  0.36630000  1
  O  O164  1  0.06030000  0.00000000  0.86630000  1
  O  O165  1  0.06030000  0.50000000  0.36630000  1
  O  O166  1  0.56030000  0.50000000  0.86630000  1
  O  O167  1  0.56030000  0.00000000  0.36630000  1
  O  O168  1  0.07080000  0.07030000  0.00000000  1
  O  O169  1  0.07080000  0.57030000  0.50000000  1
  O  O170  1  0.57080000  0.57030000  0.00000000  1
  O  O171  1  0.57080000  0.07030000  0.50000000  1
  O  O172  1  0.92920000  0.07030000  0.00000000  1
  O  O173  1  0.92920000  0.57030000  0.50000000  1
  O  O174  1  0.42920000  0.57030000  0.00000000  1
  O  O175  1  0.42920000  0.07030000  0.50000000  1
  O  O176  1  0.07080000  0.92970000  0.00000000  1
  O  O177  1  0.07080000  0.42970000  0.50000000  1
  O  O178  1  0.57080000  0.42970000  0.00000000  1
  O  O179  1  0.57080000  0.92970000  0.50000000  1
  O  O180  1  0.92920000  0.92970000  0.00000000  1
  O  O181  1  0.92920000  0.42970000  0.50000000  1
  O  O182  1  0.42920000  0.42970000  0.00000000  1
  O  O183  1  0.42920000  0.92970000  0.50000000  1
  O  O184  1  0.00000000  0.07730000  0.12390000  1
  O  O185  1  0.00000000  0.57730000  0.62390000  1
  O  O186  1  0.50000000  0.57730000  0.12390000  1
  O  O187  1  0.50000000  0.07730000  0.62390000  1
  O  O188  1  0.00000000  0.92270000  0.12390000  1
  O  O189  1  0.00000000  0.42270000  0.62390000  1
  O  O190  1  0.50000000  0.42270000  0.12390000  1
  O  O191  1  0.50000000  0.92270000  0.62390000  1
  O  O192  1  0.00000000  0.92270000  0.87610000  1
  O  O193  1  0.00000000  0.42270000  0.37610000  1
  O  O194  1  0.50000000  0.42270000  0.87610000  1
  O  O195  1  0.50000000  0.92270000  0.37610000  1
  O  O196  1  0.00000000  0.07730000  0.87610000  1
  O  O197  1  0.00000000  0.57730000  0.37610000  1
  O  O198  1  0.50000000  0.57730000  0.87610000  1
  O  O199  1  0.50000000  0.07730000  0.37610000  1
  O  O200  1  0.30680000  0.19100000  0.90330000  1
  O  O201  1  0.30680000  0.69100000  0.40330000  1
  O  O202  1  0.80680000  0.69100000  0.90330000  1
  O  O203  1  0.80680000  0.19100000  0.40330000  1
  O  O204  1  0.69320000  0.19100000  0.90330000  1
  O  O205  1  0.69320000  0.69100000  0.40330000  1
  O  O206  1  0.19320000  0.69100000  0.90330000  1
  O  O207  1  0.19320000  0.19100000  0.40330000  1
  O  O208  1  0.30680000  0.80900000  0.90330000  1
  O  O209  1  0.30680000  0.30900000  0.40330000  1
  O  O210  1  0.80680000  0.30900000  0.90330000  1
  O  O211  1  0.80680000  0.80900000  0.40330000  1
  O  O212  1  0.69320000  0.80900000  0.90330000  1
  O  O213  1  0.69320000  0.30900000  0.40330000  1
  O  O214  1  0.19320000  0.30900000  0.90330000  1
  O  O215  1  0.19320000  0.80900000  0.40330000  1
  O  O216  1  0.69320000  0.80900000  0.09670000  1
  O  O217  1  0.69320000  0.30900000  0.59670000  1
  O  O218  1  0.19320000  0.30900000  0.09670000  1
  O  O219  1  0.19320000  0.80900000  0.59670000  1
  O  O220  1  0.30680000  0.80900000  0.09670000  1
  O  O221  1  0.30680000  0.30900000  0.59670000  1
  O  O222  1  0.80680000  0.30900000  0.09670000  1
  O  O223  1  0.80680000  0.80900000  0.59670000  1
  O  O224  1  0.69320000  0.19100000  0.09670000  1
  O  O225  1  0.69320000  0.69100000  0.59670000  1
  O  O226  1  0.19320000  0.69100000  0.09670000  1
  O  O227  1  0.19320000  0.19100000  0.59670000  1
  O  O228  1  0.30680000  0.19100000  0.09670000  1
  O  O229  1  0.30680000  0.69100000  0.59670000  1
  O  O230  1  0.80680000  0.69100000  0.09670000  1
  O  O231  1  0.80680000  0.19100000  0.59670000  1
  O  O232  1  0.23450000  0.15130000  0.00000000  1
  O  O233  1  0.23450000  0.65130000  0.50000000  1
  O  O234  1  0.73450000  0.65130000  0.00000000  1
  O  O235  1  0.73450000  0.15130000  0.50000000  1
  O  O236  1  0.76550000  0.15130000  0.00000000  1
  O  O237  1  0.76550000  0.65130000  0.50000000  1
  O  O238  1  0.26550000  0.65130000  0.00000000  1
  O  O239  1  0.26550000  0.15130000  0.50000000  1
  O  O240  1  0.23450000  0.84870000  0.00000000  1
  O  O241  1  0.23450000  0.34870000  0.50000000  1
  O  O242  1  0.73450000  0.34870000  0.00000000  1
  O  O243  1  0.73450000  0.84870000  0.50000000  1
  O  O244  1  0.76550000  0.84870000  0.00000000  1
  O  O245  1  0.76550000  0.34870000  0.50000000  1
  O  O246  1  0.26550000  0.34870000  0.00000000  1
  O  O247  1  0.26550000  0.84870000  0.50000000  1
  O  O248  1  0.25000000  0.25000000  0.00000000  1
  O  O249  1  0.25000000  0.75000000  0.50000000  1
  O  O250  1  0.75000000  0.75000000  0.00000000  1
  O  O251  1  0.75000000  0.25000000  0.50000000  1
  O  O252  1  0.75000000  0.25000000  0.00000000  1
  O  O253  1  0.75000000  0.75000000  0.50000000  1
  O  O254  1  0.25000000  0.75000000  0.00000000  1
  O  O255  1  0.25000000  0.25000000  0.50000000  1
  O  O256  1  0.25000000  0.17950000  0.25000000  1
  O  O257  1  0.25000000  0.67950000  0.75000000  1
  O  O258  1  0.75000000  0.67950000  0.25000000  1
  O  O259  1  0.75000000  0.17950000  0.75000000  1
  O  O260  1  0.75000000  0.17950000  0.25000000  1
  O  O261  1  0.75000000  0.67950000  0.75000000  1
  O  O262  1  0.25000000  0.67950000  0.25000000  1
  O  O263  1  0.25000000  0.17950000  0.75000000  1
  O  O264  1  0.25000000  0.82050000  0.25000000  1
  O  O265  1  0.25000000  0.32050000  0.75000000  1
  O  O266  1  0.75000000  0.32050000  0.25000000  1
  O  O267  1  0.75000000  0.82050000  0.75000000  1
  O  O268  1  0.75000000  0.82050000  0.25000000  1
  O  O269  1  0.75000000  0.32050000  0.75000000  1
  O  O270  1  0.25000000  0.32050000  0.25000000  1
  O  O271  1  0.25000000  0.82050000  0.75000000  1
  O  O272  1  0.31700000  0.25000000  0.25000000  1
  O  O273  1  0.31700000  0.75000000  0.75000000  1
  O  O274  1  0.81700000  0.75000000  0.25000000  1
  O  O275  1  0.81700000  0.25000000  0.75000000  1
  O  O276  1  0.68300000  0.25000000  0.25000000  1
  O  O277  1  0.68300000  0.75000000  0.75000000  1
  O  O278  1  0.18300000  0.75000000  0.25000000  1
  O  O279  1  0.18300000  0.25000000  0.75000000  1
  O  O280  1  0.31700000  0.75000000  0.25000000  1
  O  O281  1  0.31700000  0.25000000  0.75000000  1
  O  O282  1  0.81700000  0.25000000  0.25000000  1
  O  O283  1  0.81700000  0.75000000  0.75000000  1
  O  O284  1  0.68300000  0.75000000  0.25000000  1
  O  O285  1  0.68300000  0.25000000  0.75000000  1
  O  O286  1  0.18300000  0.25000000  0.25000000  1
  O  O287  1  0.18300000  0.75000000  0.75000000  1
  O  O288  1  0.23860000  0.05050000  0.00000000  1
  O  O289  1  0.23860000  0.55050000  0.50000000  1
  O  O290  1  0.73860000  0.55050000  0.00000000  1
  O  O291  1  0.73860000  0.05050000  0.50000000  1
  O  O292  1  0.76140000  0.05050000  0.00000000  1
  O  O293  1  0.76140000  0.55050000  0.50000000  1
  O  O294  1  0.26140000  0.55050000  0.00000000  1
  O  O295  1  0.26140000  0.05050000  0.50000000  1
  O  O296  1  0.23860000  0.94950000  0.00000000  1
  O  O297  1  0.23860000  0.44950000  0.50000000  1
  O  O298  1  0.73860000  0.44950000  0.00000000  1
  O  O299  1  0.73860000  0.94950000  0.50000000  1
  O  O300  1  0.76140000  0.94950000  0.00000000  1
  O  O301  1  0.76140000  0.44950000  0.50000000  1
  O  O302  1  0.26140000  0.44950000  0.00000000  1
  O  O303  1  0.26140000  0.94950000  0.50000000  1
