# generated using pymatgen
data_O2
_symmetry_space_group_name_H-M   'P 1'
_cell_length_a   11.80300000
_cell_length_b   10.27800000
_cell_length_c   9.98900000
_cell_angle_alpha   90.00000000
_cell_angle_beta   90.00000000
_cell_angle_gamma   90.00000000
_symmetry_Int_Tables_number   1
_chemical_formula_structural   O2
_chemical_formula_sum   O40
_cell_volume   1211.77791643
_cell_formula_units_Z   20
loop_
 _symmetry_equiv_pos_site_id
 _symmetry_equiv_pos_as_xyz
  1  'x, y, z'
loop_
 _atom_site_type_symbol
 _atom_site_label
 _atom_site_symmetry_multiplicity
 _atom_site_fract_x
 _atom_site_fract_y
 _atom_site_fract_z
 _atom_site_occupancy
  O  O0  1  0.42100000  0.09050000  0.15710000  1
  O  O1  1  0.92100000  0.59050000  0.15710000  1
  O  O2  1  0.57900000  0.09050000  0.65710000  1
  O  O3  1  0.07900000  0.59050000  0.65710000  1
  O  O4  1  0.42100000  0.90950000  0.65710000  1
  O  O5  1  0.92100000  0.40950000  0.65710000  1
  O  O6  1  0.57900000  0.90950000  0.15710000  1
  O  O7  1  0.07900000  0.40950000  0.15710000  1
  O  O8  1  0.57900000  0.90950000  0.84290000  1
  O  O9  1  0.07900000  0.40950000  0.84290000  1
  O  O10  1  0.42100000  0.90950000  0.34290000  1
  O  O11  1  0.92100000  0.40950000  0.34290000  1
  O  O12  1  0.57900000  0.09050000  0.34290000  1
  O  O13  1  0.07900000  0.59050000  0.34290000  1
  O  O14  1  0.42100000  0.09050000  0.84290000  1
  O  O15  1  0.92100000  0.59050000  0.84290000  1
  O  O16  1  0.24250000  0.08130000  0.00000000  1
  O  O17  1  0.74250000  0.58130000  0.00000000  1
  O  O18  1  0.75750000  0.08130000  0.50000000  1
  O  O19  1  0.25750000  0.58130000  0.50000000  1
  O  O20  1  0.24250000  0.91870000  0.50000000  1
  O  O21  1  0.74250000  0.41870000  0.50000000  1
  O  O22  1  0.75750000  0.91870000  0.00000000  1
  O  O23  1  0.25750000  0.41870000  0.00000000  1
  O  O24  1  0.22930000  0.00000000  0.25000000  1
  O  O25  1  0.72930000  0.50000000  0.25000000  1
  O  O26  1  0.77070000  0.00000000  0.75000000  1
  O  O27  1  0.27070000  0.50000000  0.75000000  1
  O  O28  1  0.22930000  0.00000000  0.75000000  1
  O  O29  1  0.72930000  0.50000000  0.75000000  1
  O  O30  1  0.77070000  0.00000000  0.25000000  1
  O  O31  1  0.27070000  0.50000000  0.25000000  1
  O  O32  1  0.25000000  0.25000000  0.19820000  1
  O  O33  1  0.75000000  0.75000000  0.19820000  1
  O  O34  1  0.75000000  0.25000000  0.69820000  1
  O  O35  1  0.25000000  0.75000000  0.69820000  1
  O  O36  1  0.75000000  0.75000000  0.80180000  1
  O  O37  1  0.25000000  0.25000000  0.80180000  1
  O  O38  1  0.25000000  0.75000000  0.30180000  1
  O  O39  1  0.75000000  0.25000000  0.30180000  1
