# generated using pymatgen
data_Si
_symmetry_space_group_name_H-M   'P 1'
_cell_length_a   11.80300000
_cell_length_b   10.27800000
_cell_length_c   9.98900000
_cell_angle_alpha   90.00000000
_cell_angle_beta   90.00000000
_cell_angle_gamma   90.00000000
_symmetry_Int_Tables_number   1
_chemical_formula_structural   Si
_chemical_formula_sum   Si20
_cell_volume   1211.77791643
_cell_formula_units_Z   20
loop_
 _symmetry_equiv_pos_site_id
 _symmetry_equiv_pos_as_xyz
  1  'x, y, z'
loop_
 _atom_site_type_symbol
 _atom_site_label
 _atom_site_symmetry_multiplicity
 _atom_site_fract_x
 _atom_site_fract_y
 _atom_site_fract_z
 _atom_site_occupancy
  Si  Si0  1  0.28520000  0.10590000  0.15090000  1
  Si  Si1  1  0.78520000  0.60590000  0.15090000  1
  Si  Si2  1  0.71480000  0.10590000  0.65090000  1
  Si  Si3  1  0.21480000  0.60590000  0.65090000  1
  Si  Si4  1  0.28520000  0.89410000  0.65090000  1
  Si  Si5  1  0.78520000  0.39410000  0.65090000  1
  Si  Si6  1  0.71480000  0.89410000  0.15090000  1
  Si  Si7  1  0.21480000  0.39410000  0.15090000  1
  Si  Si8  1  0.71480000  0.89410000  0.84910000  1
  Si  Si9  1  0.21480000  0.39410000  0.84910000  1
  Si  Si10  1  0.28520000  0.89410000  0.34910000  1
  Si  Si11  1  0.78520000  0.39410000  0.34910000  1
  Si  Si12  1  0.71480000  0.10590000  0.34910000  1
  Si  Si13  1  0.21480000  0.60590000  0.34910000  1
  Si  Si14  1  0.28520000  0.10590000  0.84910000  1
  Si  Si15  1  0.78520000  0.60590000  0.84910000  1
  Si  Si16  1  0.00000000  0.50000000  0.25000000  1
  Si  Si17  1  0.50000000  0.00000000  0.25000000  1
  Si  Si18  1  0.00000000  0.50000000  0.75000000  1
  Si  Si19  1  0.50000000  0.00000000  0.75000000  1
