# generated using pymatgen
data_SiO4
_symmetry_space_group_name_H-M   'P 1'
_cell_length_a   12.74110000
_cell_length_b   12.69890000
_cell_length_c   20.99910000
_cell_angle_alpha   90.00000000
_cell_angle_beta   96.29000000
_cell_angle_gamma   90.00000000
_symmetry_Int_Tables_number   1
_chemical_formula_structural   SiO4
_chemical_formula_sum   'Si1 O4'
_cell_volume   3377.15812611
_cell_formula_units_Z   1
loop_
 _symmetry_equiv_pos_site_id
 _symmetry_equiv_pos_as_xyz
  1  'x, y, z'
loop_
 _atom_site_type_symbol
 _atom_site_label
 _atom_site_symmetry_multiplicity
 _atom_site_fract_x
 _atom_site_fract_y
 _atom_site_fract_z
 _atom_site_occupancy
  Si  Si0  1  0.11830000  0.37880000  0.06210000  1
  O  O1  1  0.02190000  0.32000000  0.09080000  1
  O  O2  1  0.08750000  0.50000000  0.04730000  1
  O  O3  1  0.22250000  0.37380000  0.11290000  1
  O  O4  1  0.14170000  0.32090000  -0.00310000  1
