# generated using pymatgen
data_Si
_symmetry_space_group_name_H-M   'P 1'
_cell_length_a   12.74110000
_cell_length_b   12.69890000
_cell_length_c   20.99910000
_cell_angle_alpha   90.00000000
_cell_angle_beta   96.29000000
_cell_angle_gamma   90.00000000
_symmetry_Int_Tables_number   1
_chemical_formula_structural   Si
_chemical_formula_sum   Si56
_cell_volume   3377.15812611
_cell_formula_units_Z   56
loop_
 _symmetry_equiv_pos_site_id
 _symmetry_equiv_pos_as_xyz
  1  'x, y, z'
loop_
 _atom_site_type_symbol
 _atom_site_label
 _atom_site_symmetry_multiplicity
 _atom_site_fract_x
 _atom_site_fract_y
 _atom_site_fract_z
 _atom_site_occupancy
  Si  Si0  1  0.64670000  0.12070000  0.23710000  1
  Si  Si1  1  0.35330000  0.12070000  0.76290000  1
  Si  Si2  1  0.35330000  0.87930000  0.76290000  1
  Si  Si3  1  0.64670000  0.87930000  0.23710000  1
  Si  Si4  1  0.79550000  0.12070000  0.36510000  1
  Si  Si5  1  0.20450000  0.12070000  0.63490000  1
  Si  Si6  1  0.20450000  0.87930000  0.63490000  1
  Si  Si7  1  0.79550000  0.87930000  0.36510000  1
  Si  Si8  1  0.98660000  0.12120000  0.29030000  1
  Si  Si9  1  0.01340000  0.12120000  0.70970000  1
  Si  Si10  1  0.01340000  0.87880000  0.70970000  1
  Si  Si11  1  0.98660000  0.87880000  0.29030000  1
  Si  Si12  1  0.83870000  0.12110000  0.16230000  1
  Si  Si13  1  0.16130000  0.12110000  0.83770000  1
  Si  Si14  1  0.16130000  0.87890000  0.83770000  1
  Si  Si15  1  0.83870000  0.87890000  0.16230000  1
  Si  Si16  1  0.11830000  0.37880000  0.06210000  1
  Si  Si17  1  0.88170000  0.37880000  0.93790000  1
  Si  Si18  1  0.88170000  0.62120000  0.93790000  1
  Si  Si19  1  0.11830000  0.62120000  0.06210000  1
  Si  Si20  1  0.26970000  0.37890000  0.18720000  1
  Si  Si21  1  0.73030000  0.37890000  0.81280000  1
  Si  Si22  1  0.73030000  0.62110000  0.81280000  1
  Si  Si23  1  0.26970000  0.62110000  0.18720000  1
  Si  Si24  1  0.14590000  0.30590000  0.29760000  1
  Si  Si25  1  0.85410000  0.30590000  0.70240000  1
  Si  Si26  1  0.85410000  0.69410000  0.70240000  1
  Si  Si27  1  0.14590000  0.69410000  0.29760000  1
  Si  Si28  1  0.28660000  0.38010000  0.41790000  1
  Si  Si29  1  0.71340000  0.38010000  0.58210000  1
  Si  Si30  1  0.71340000  0.61990000  0.58210000  1
  Si  Si31  1  0.28660000  0.61990000  0.41790000  1
  Si  Si32  1  0.51180000  0.37990000  0.38120000  1
  Si  Si33  1  0.48820000  0.37990000  0.61880000  1
  Si  Si34  1  0.48820000  0.62010000  0.61880000  1
  Si  Si35  1  0.51180000  0.62010000  0.38120000  1
  Si  Si36  1  0.73320000  0.30790000  0.44390000  1
  Si  Si37  1  0.26680000  0.30790000  0.55610000  1
  Si  Si38  1  0.26680000  0.69210000  0.55610000  1
  Si  Si39  1  0.73320000  0.69210000  0.44390000  1
  Si  Si40  1  0.49530000  0.30820000  0.23980000  1
  Si  Si41  1  0.50470000  0.30820000  0.76020000  1
  Si  Si42  1  0.50470000  0.69180000  0.76020000  1
  Si  Si43  1  0.49530000  0.69180000  0.23980000  1
  Si  Si44  1  0.89560000  0.30710000  0.07840000  1
  Si  Si45  1  0.10440000  0.30710000  0.92160000  1
  Si  Si46  1  0.10440000  0.69290000  0.92160000  1
  Si  Si47  1  0.89560000  0.69290000  0.07840000  1
  Si  Si48  1  0.79000000  0.50000000  0.36460000  1
  Si  Si49  1  0.21000000  0.50000000  0.63540000  1
  Si  Si50  1  0.99140000  0.50000000  0.28490000  1
  Si  Si51  1  0.00860000  0.50000000  0.71510000  1
  Si  Si52  1  0.84740000  0.50000000  0.16200000  1
  Si  Si53  1  0.15260000  0.50000000  0.83800000  1
  Si  Si54  1  0.64590000  0.50000000  0.24160000  1
  Si  Si55  1  0.35410000  0.50000000  0.75840000  1
