# generated using pymatgen
data_O2
_symmetry_space_group_name_H-M   'P 1'
_cell_length_a   12.74110000
_cell_length_b   12.69890000
_cell_length_c   20.99910000
_cell_angle_alpha   90.00000000
_cell_angle_beta   96.29000000
_cell_angle_gamma   90.00000000
_symmetry_Int_Tables_number   1
_chemical_formula_structural   O2
_chemical_formula_sum   O112
_cell_volume   3377.15812611
_cell_formula_units_Z   56
loop_
 _symmetry_equiv_pos_site_id
 _symmetry_equiv_pos_as_xyz
  1  'x, y, z'
loop_
 _atom_site_type_symbol
 _atom_site_label
 _atom_site_symmetry_multiplicity
 _atom_site_fract_x
 _atom_site_fract_y
 _atom_site_fract_z
 _atom_site_occupancy
  O  O0  1  0.02190000  0.32000000  0.09080000  1
  O  O1  1  0.97810000  0.32000000  0.90920000  1
  O  O2  1  0.97810000  0.68000000  0.90920000  1
  O  O3  1  0.02190000  0.68000000  0.09080000  1
  O  O4  1  0.08750000  0.50000000  0.04730000  1
  O  O5  1  0.91250000  0.50000000  0.95270000  1
  O  O6  1  0.22250000  0.37380000  0.11290000  1
  O  O7  1  0.77750000  0.37380000  0.88710000  1
  O  O8  1  0.77750000  0.62620000  0.88710000  1
  O  O9  1  0.22250000  0.62620000  0.11290000  1
  O  O10  1  0.28010000  0.50000000  0.20970000  1
  O  O11  1  0.71990000  0.50000000  0.79030000  1
  O  O12  1  0.38410000  0.32370000  0.19640000  1
  O  O13  1  0.61590000  0.32370000  0.80360000  1
  O  O14  1  0.61590000  0.67630000  0.80360000  1
  O  O15  1  0.38410000  0.67630000  0.19640000  1
  O  O16  1  0.19110000  0.31750000  0.22930000  1
  O  O17  1  0.80890000  0.31750000  0.77070000  1
  O  O18  1  0.80890000  0.68250000  0.77070000  1
  O  O19  1  0.19110000  0.68250000  0.22930000  1
  O  O20  1  0.09160000  0.19210000  0.30250000  1
  O  O21  1  0.90840000  0.19210000  0.69750000  1
  O  O22  1  0.90840000  0.80790000  0.69750000  1
  O  O23  1  0.09160000  0.80790000  0.30250000  1
  O  O24  1  0.05980000  0.39640000  0.30510000  1
  O  O25  1  0.94020000  0.39640000  0.69490000  1
  O  O26  1  0.94020000  0.60360000  0.69490000  1
  O  O27  1  0.05980000  0.60360000  0.30510000  1
  O  O28  1  0.24130000  0.31730000  0.35410000  1
  O  O29  1  0.75870000  0.31730000  0.64590000  1
  O  O30  1  0.75870000  0.68270000  0.64590000  1
  O  O31  1  0.24130000  0.68270000  0.35410000  1
  O  O32  1  0.24740000  0.32360000  0.47970000  1
  O  O33  1  0.75260000  0.32360000  0.52030000  1
  O  O34  1  0.75260000  0.67640000  0.52030000  1
  O  O35  1  0.24740000  0.67640000  0.47970000  1
  O  O36  1  0.24530000  0.50000000  0.41370000  1
  O  O37  1  0.75470000  0.50000000  0.58630000  1
  O  O38  1  0.41370000  0.37940000  0.42350000  1
  O  O39  1  0.58630000  0.37940000  0.57650000  1
  O  O40  1  0.58630000  0.62060000  0.57650000  1
  O  O41  1  0.41370000  0.62060000  0.42350000  1
  O  O42  1  0.47860000  0.32030000  0.31440000  1
  O  O43  1  0.52140000  0.32030000  0.68560000  1
  O  O44  1  0.52140000  0.67970000  0.68560000  1
  O  O45  1  0.47860000  0.67970000  0.31440000  1
  O  O46  1  0.54420000  0.50000000  0.36820000  1
  O  O47  1  0.45580000  0.50000000  0.63180000  1
  O  O48  1  0.60920000  0.31870000  0.42010000  1
  O  O49  1  0.39080000  0.31870000  0.57990000  1
  O  O50  1  0.39080000  0.68130000  0.57990000  1
  O  O51  1  0.60920000  0.68130000  0.42010000  1
  O  O52  1  0.77430000  0.19330000  0.42530000  1
  O  O53  1  0.22570000  0.19330000  0.57470000  1
  O  O54  1  0.22570000  0.80670000  0.57470000  1
  O  O55  1  0.77430000  0.80670000  0.42530000  1
  O  O56  1  0.79710000  0.39660000  0.40920000  1
  O  O57  1  0.20290000  0.39660000  0.59080000  1
  O  O58  1  0.20290000  0.60340000  0.59080000  1
  O  O59  1  0.79710000  0.60340000  0.40920000  1
  O  O60  1  0.68110000  0.50000000  0.31770000  1
  O  O61  1  0.31890000  0.50000000  0.68230000  1
  O  O62  1  0.88730000  0.50000000  0.32190000  1
  O  O63  1  0.11270000  0.50000000  0.67810000  1
  O  O64  1  0.95640000  0.50000000  0.20890000  1
  O  O65  1  0.04360000  0.50000000  0.79110000  1
  O  O66  1  0.84020000  0.39650000  0.11760000  1
  O  O67  1  0.15980000  0.39650000  0.88240000  1
  O  O68  1  0.15980000  0.60350000  0.88240000  1
  O  O69  1  0.84020000  0.60350000  0.11760000  1
  O  O70  1  0.75010000  0.50000000  0.20470000  1
  O  O71  1  0.24990000  0.50000000  0.79530000  1
  O  O72  1  0.57720000  0.39660000  0.22130000  1
  O  O73  1  0.42280000  0.39660000  0.77870000  1
  O  O74  1  0.42280000  0.60340000  0.77870000  1
  O  O75  1  0.57720000  0.60340000  0.22130000  1
  O  O76  1  0.54290000  0.19380000  0.22660000  1
  O  O77  1  0.45710000  0.19380000  0.77340000  1
  O  O78  1  0.45710000  0.80620000  0.77340000  1
  O  O79  1  0.54290000  0.80620000  0.22660000  1
  O  O80  1  0.61450000  0.00000000  0.22170000  1
  O  O81  1  0.38550000  0.00000000  0.77830000  1
  O  O82  1  0.73210000  0.15790000  0.19050000  1
  O  O83  1  0.26790000  0.15790000  0.80950000  1
  O  O84  1  0.26790000  0.84210000  0.80950000  1
  O  O85  1  0.73210000  0.84210000  0.19050000  1
  O  O86  1  0.69690000  0.13020000  0.31060000  1
  O  O87  1  0.30310000  0.13020000  0.68940000  1
  O  O88  1  0.30310000  0.86980000  0.68940000  1
  O  O89  1  0.69690000  0.86980000  0.31060000  1
  O  O90  1  0.80920000  0.00000000  0.38790000  1
  O  O91  1  0.19080000  0.00000000  0.61210000  1
  O  O92  1  0.90140000  0.15940000  0.33670000  1
  O  O93  1  0.09860000  0.15940000  0.66330000  1
  O  O94  1  0.09860000  0.84060000  0.66330000  1
  O  O95  1  0.90140000  0.84060000  0.33670000  1
  O  O96  1  0.93730000  0.13240000  0.21680000  1
  O  O97  1  0.06270000  0.13240000  0.78320000  1
  O  O98  1  0.06270000  0.86760000  0.78320000  1
  O  O99  1  0.93730000  0.86760000  0.21680000  1
  O  O100  1  0.82720000  0.00000000  0.13990000  1
  O  O101  1  0.17280000  0.00000000  0.86010000  1
  O  O102  1  0.86010000  0.19310000  0.10190000  1
  O  O103  1  0.13990000  0.19310000  0.89810000  1
  O  O104  1  0.13990000  0.80690000  0.89810000  1
  O  O105  1  0.86010000  0.80690000  0.10190000  1
  O  O106  1  0.85830000  0.32090000  0.00310000  1
  O  O107  1  0.14170000  0.32090000  0.99690000  1
  O  O108  1  0.14170000  0.67910000  0.99690000  1
  O  O109  1  0.85830000  0.67910000  0.00310000  1
  O  O110  1  0.01680000  0.00000000  0.30550000  1
  O  O111  1  0.98320000  0.00000000  0.69450000  1
