# generated using pymatgen
data_O2
_symmetry_space_group_name_H-M   'P 1'
_cell_length_a   6.91800000
_cell_length_b   14.87000000
_cell_length_c   17.23600000
_cell_angle_alpha   90.00000000
_cell_angle_beta   90.00000000
_cell_angle_gamma   90.00000000
_symmetry_Int_Tables_number   1
_chemical_formula_structural   O2
_chemical_formula_sum   O64
_cell_volume   1773.07869576
_cell_formula_units_Z   32
loop_
 _symmetry_equiv_pos_site_id
 _symmetry_equiv_pos_as_xyz
  1  'x, y, z'
loop_
 _atom_site_type_symbol
 _atom_site_label
 _atom_site_symmetry_multiplicity
 _atom_site_fract_x
 _atom_site_fract_y
 _atom_site_fract_z
 _atom_site_occupancy
  O  O0  1  0.91690000  0.67890000  0.36940000  1
  O  O1  1  0.08310000  0.17890000  0.36940000  1
  O  O2  1  0.91690000  0.82110000  0.86940000  1
  O  O3  1  0.08310000  0.32110000  0.86940000  1
  O  O4  1  0.08310000  0.32110000  0.63060000  1
  O  O5  1  0.91690000  0.82110000  0.63060000  1
  O  O6  1  0.08310000  0.17890000  0.13060000  1
  O  O7  1  0.91690000  0.67890000  0.13060000  1
  O  O8  1  0.29370000  0.68220000  0.38760000  1
  O  O9  1  0.70630000  0.18220000  0.38760000  1
  O  O10  1  0.29370000  0.81780000  0.88760000  1
  O  O11  1  0.70630000  0.31780000  0.88760000  1
  O  O12  1  0.70630000  0.31780000  0.61240000  1
  O  O13  1  0.29370000  0.81780000  0.61240000  1
  O  O14  1  0.70630000  0.18220000  0.11240000  1
  O  O15  1  0.29370000  0.68220000  0.11240000  1
  O  O16  1  0.10630000  0.83240000  0.35970000  1
  O  O17  1  0.89370000  0.33240000  0.35970000  1
  O  O18  1  0.10630000  0.66760000  0.85970000  1
  O  O19  1  0.89370000  0.16760000  0.85970000  1
  O  O20  1  0.89370000  0.16760000  0.64030000  1
  O  O21  1  0.10630000  0.66760000  0.64030000  1
  O  O22  1  0.89370000  0.33240000  0.14030000  1
  O  O23  1  0.10630000  0.83240000  0.14030000  1
  O  O24  1  0.14340000  0.71050000  0.25000000  1
  O  O25  1  0.85660000  0.21050000  0.25000000  1
  O  O26  1  0.14340000  0.78950000  0.75000000  1
  O  O27  1  0.85660000  0.28950000  0.75000000  1
  O  O28  1  0.08210000  0.00430000  0.39570000  1
  O  O29  1  0.91790000  0.50430000  0.39570000  1
  O  O30  1  0.08210000  0.49570000  0.89570000  1
  O  O31  1  0.91790000  0.99570000  0.89570000  1
  O  O32  1  0.91790000  0.99570000  0.60430000  1
  O  O33  1  0.08210000  0.49570000  0.60430000  1
  O  O34  1  0.91790000  0.50430000  0.10430000  1
  O  O35  1  0.08210000  0.00430000  0.10430000  1
  O  O36  1  0.30800000  0.89800000  0.47650000  1
  O  O37  1  0.69200000  0.39800000  0.47650000  1
  O  O38  1  0.30800000  0.60200000  0.97650000  1
  O  O39  1  0.69200000  0.10200000  0.97650000  1
  O  O40  1  0.69200000  0.10200000  0.52350000  1
  O  O41  1  0.30800000  0.60200000  0.52350000  1
  O  O42  1  0.69200000  0.39800000  0.02350000  1
  O  O43  1  0.30800000  0.89800000  0.02350000  1
  O  O44  1  0.93070000  0.88210000  0.48770000  1
  O  O45  1  0.06930000  0.38210000  0.48770000  1
  O  O46  1  0.93070000  0.61790000  0.98770000  1
  O  O47  1  0.06930000  0.11790000  0.98770000  1
  O  O48  1  0.06930000  0.11790000  0.51230000  1
  O  O49  1  0.93070000  0.61790000  0.51230000  1
  O  O50  1  0.06930000  0.38210000  0.01230000  1
  O  O51  1  0.93070000  0.88210000  0.01230000  1
  O  O52  1  0.61180000  0.60040000  0.43110000  1
  O  O53  1  0.38820000  0.10040000  0.43110000  1
  O  O54  1  0.61180000  0.89960000  0.93110000  1
  O  O55  1  0.38820000  0.39960000  0.93110000  1
  O  O56  1  0.38820000  0.39960000  0.56890000  1
  O  O57  1  0.61180000  0.89960000  0.56890000  1
  O  O58  1  0.38820000  0.10040000  0.06890000  1
  O  O59  1  0.61180000  0.60040000  0.06890000  1
  O  O60  1  0.50590000  0.75000000  0.50000000  1
  O  O61  1  0.49410000  0.25000000  0.50000000  1
  O  O62  1  0.50590000  0.75000000  0.00000000  1
  O  O63  1  0.49410000  0.25000000  0.00000000  1
