# generated using pymatgen
data_Si
_symmetry_space_group_name_H-M   'P 1'
_cell_length_a   6.91800000
_cell_length_b   14.87000000
_cell_length_c   17.23600000
_cell_angle_alpha   90.00000000
_cell_angle_beta   90.00000000
_cell_angle_gamma   90.00000000
_symmetry_Int_Tables_number   1
_chemical_formula_structural   Si
_chemical_formula_sum   Si32
_cell_volume   1773.07869576
_cell_formula_units_Z   32
loop_
 _symmetry_equiv_pos_site_id
 _symmetry_equiv_pos_as_xyz
  1  'x, y, z'
loop_
 _atom_site_type_symbol
 _atom_site_label
 _atom_site_symmetry_multiplicity
 _atom_site_fract_x
 _atom_site_fract_y
 _atom_site_fract_z
 _atom_site_occupancy
  Si  Si0  1  0.11460000  0.72620000  0.34160000  1
  Si  Si1  1  0.88540000  0.22620000  0.34160000  1
  Si  Si2  1  0.11460000  0.77380000  0.84160000  1
  Si  Si3  1  0.88540000  0.27380000  0.84160000  1
  Si  Si4  1  0.88540000  0.27380000  0.65840000  1
  Si  Si5  1  0.11460000  0.77380000  0.65840000  1
  Si  Si6  1  0.88540000  0.22620000  0.15840000  1
  Si  Si7  1  0.11460000  0.72620000  0.15840000  1
  Si  Si8  1  0.10690000  0.90400000  0.42970000  1
  Si  Si9  1  0.89310000  0.40400000  0.42970000  1
  Si  Si10  1  0.10690000  0.59600000  0.92970000  1
  Si  Si11  1  0.89310000  0.09600000  0.92970000  1
  Si  Si12  1  0.89310000  0.09600000  0.57030000  1
  Si  Si13  1  0.10690000  0.59600000  0.57030000  1
  Si  Si14  1  0.89310000  0.40400000  0.07030000  1
  Si  Si15  1  0.10690000  0.90400000  0.07030000  1
  Si  Si16  1  0.84430000  0.60050000  0.42680000  1
  Si  Si17  1  0.15570000  0.10050000  0.42680000  1
  Si  Si18  1  0.84430000  0.89950000  0.92680000  1
  Si  Si19  1  0.15570000  0.39950000  0.92680000  1
  Si  Si20  1  0.15570000  0.39950000  0.57320000  1
  Si  Si21  1  0.84430000  0.89950000  0.57320000  1
  Si  Si22  1  0.15570000  0.10050000  0.07320000  1
  Si  Si23  1  0.84430000  0.60050000  0.07320000  1
  Si  Si24  1  0.42970000  0.84150000  0.53950000  1
  Si  Si25  1  0.57030000  0.34150000  0.53950000  1
  Si  Si26  1  0.42970000  0.65850000  0.03950000  1
  Si  Si27  1  0.57030000  0.15850000  0.03950000  1
  Si  Si28  1  0.57030000  0.15850000  0.46050000  1
  Si  Si29  1  0.42970000  0.65850000  0.46050000  1
  Si  Si30  1  0.57030000  0.34150000  0.96050000  1
  Si  Si31  1  0.42970000  0.84150000  0.96050000  1
