# generated using pymatgen
data_SiO4
_symmetry_space_group_name_H-M   'P 1'
_cell_length_a   12.55900000
_cell_length_b   12.55900000
_cell_length_c   41.02600000
_cell_angle_alpha   90.00000000
_cell_angle_beta   90.00000000
_cell_angle_gamma   120.00000000
_symmetry_Int_Tables_number   1
_chemical_formula_structural   SiO4
_chemical_formula_sum   'Si1 O4'
_cell_volume   5604.02324796
_cell_formula_units_Z   1
loop_
 _symmetry_equiv_pos_site_id
 _symmetry_equiv_pos_as_xyz
  1  'x, y, z'
loop_
 _atom_site_type_symbol
 _atom_site_label
 _atom_site_symmetry_multiplicity
 _atom_site_fract_x
 _atom_site_fract_y
 _atom_site_fract_z
 _atom_site_occupancy
  Si  Si0  1  0.24500000  0.24500000  0.00000000  1
  O  O1  1  0.33990000  0.29890000  -0.03000000  1
  O  O2  1  0.29890000  0.33990000  0.03000000  1
  O  O3  1  0.11400000  0.22800000  -0.01070000  1
  O  O4  1  0.22800000  0.11400000  0.01070000  1
