# generated using pymatgen
data_O2
_symmetry_space_group_name_H-M   'P 1'
_cell_length_a   12.55900000
_cell_length_b   12.55900000
_cell_length_c   41.02600000
_cell_angle_alpha   90.00000000
_cell_angle_beta   90.00000000
_cell_angle_gamma   120.00000000
_symmetry_Int_Tables_number   1
_chemical_formula_structural   O2
_chemical_formula_sum   O210
_cell_volume   5604.02324796
_cell_formula_units_Z   105
loop_
 _symmetry_equiv_pos_site_id
 _symmetry_equiv_pos_as_xyz
  1  'x, y, z'
loop_
 _atom_site_type_symbol
 _atom_site_label
 _atom_site_symmetry_multiplicity
 _atom_site_fract_x
 _atom_site_fract_y
 _atom_site_fract_z
 _atom_site_occupancy
  O  O0  1  0.70110000  0.04100000  0.97000000  1
  O  O1  1  0.95900000  0.66010000  0.97000000  1
  O  O2  1  0.33990000  0.29890000  0.97000000  1
  O  O3  1  0.29890000  0.95900000  0.47000000  1
  O  O4  1  0.04100000  0.33990000  0.47000000  1
  O  O5  1  0.66010000  0.70110000  0.47000000  1
  O  O6  1  0.95900000  0.29890000  0.97000000  1
  O  O7  1  0.33990000  0.04100000  0.97000000  1
  O  O8  1  0.70110000  0.66010000  0.97000000  1
  O  O9  1  0.04100000  0.70110000  0.47000000  1
  O  O10  1  0.66010000  0.95900000  0.47000000  1
  O  O11  1  0.29890000  0.33990000  0.47000000  1
  O  O12  1  0.29890000  0.95900000  0.03000000  1
  O  O13  1  0.04100000  0.33990000  0.03000000  1
  O  O14  1  0.66010000  0.70110000  0.03000000  1
  O  O15  1  0.70110000  0.04100000  0.53000000  1
  O  O16  1  0.95900000  0.66010000  0.53000000  1
  O  O17  1  0.33990000  0.29890000  0.53000000  1
  O  O18  1  0.04100000  0.70110000  0.03000000  1
  O  O19  1  0.66010000  0.95900000  0.03000000  1
  O  O20  1  0.29890000  0.33990000  0.03000000  1
  O  O21  1  0.95900000  0.29890000  0.53000000  1
  O  O22  1  0.33990000  0.04100000  0.53000000  1
  O  O23  1  0.70110000  0.66010000  0.53000000  1
  O  O24  1  0.77200000  0.88600000  0.98930000  1
  O  O25  1  0.11400000  0.88600000  0.98930000  1
  O  O26  1  0.11400000  0.22800000  0.98930000  1
  O  O27  1  0.22800000  0.11400000  0.48930000  1
  O  O28  1  0.88600000  0.11400000  0.48930000  1
  O  O29  1  0.88600000  0.77200000  0.48930000  1
  O  O30  1  0.22800000  0.11400000  0.01070000  1
  O  O31  1  0.88600000  0.11400000  0.01070000  1
  O  O32  1  0.88600000  0.77200000  0.01070000  1
  O  O33  1  0.77200000  0.88600000  0.51070000  1
  O  O34  1  0.11400000  0.88600000  0.51070000  1
  O  O35  1  0.11400000  0.22800000  0.51070000  1
  O  O36  1  0.43040000  0.86070000  0.75000000  1
  O  O37  1  0.13930000  0.56970000  0.75000000  1
  O  O38  1  0.43030000  0.56960000  0.75000000  1
  O  O39  1  0.56960000  0.13930000  0.25000000  1
  O  O40  1  0.86070000  0.43030000  0.25000000  1
  O  O41  1  0.56970000  0.43040000  0.25000000  1
  O  O42  1  0.63580000  0.99580000  0.78210000  1
  O  O43  1  0.00420000  0.64000000  0.78210000  1
  O  O44  1  0.36000000  0.36420000  0.78210000  1
  O  O45  1  0.36420000  0.00420000  0.28210000  1
  O  O46  1  0.99580000  0.36000000  0.28210000  1
  O  O47  1  0.64000000  0.63580000  0.28210000  1
  O  O48  1  0.00420000  0.36420000  0.78210000  1
  O  O49  1  0.36000000  0.99580000  0.78210000  1
  O  O50  1  0.63580000  0.64000000  0.78210000  1
  O  O51  1  0.99580000  0.63580000  0.28210000  1
  O  O52  1  0.64000000  0.00420000  0.28210000  1
  O  O53  1  0.36420000  0.36000000  0.28210000  1
  O  O54  1  0.36420000  0.00420000  0.21790000  1
  O  O55  1  0.99580000  0.36000000  0.21790000  1
  O  O56  1  0.64000000  0.63580000  0.21790000  1
  O  O57  1  0.63580000  0.99580000  0.71790000  1
  O  O58  1  0.00420000  0.64000000  0.71790000  1
  O  O59  1  0.36000000  0.36420000  0.71790000  1
  O  O60  1  0.99580000  0.63580000  0.21790000  1
  O  O61  1  0.64000000  0.00420000  0.21790000  1
  O  O62  1  0.36420000  0.36000000  0.21790000  1
  O  O63  1  0.00420000  0.36420000  0.71790000  1
  O  O64  1  0.36000000  0.99580000  0.71790000  1
  O  O65  1  0.63580000  0.64000000  0.71790000  1
  O  O66  1  0.60610000  0.80310000  0.75000000  1
  O  O67  1  0.19690000  0.80300000  0.75000000  1
  O  O68  1  0.19700000  0.39390000  0.75000000  1
  O  O69  1  0.39390000  0.19690000  0.25000000  1
  O  O70  1  0.80310000  0.19700000  0.25000000  1
  O  O71  1  0.80300000  0.60610000  0.25000000  1
  O  O72  1  0.19690000  0.39390000  0.75000000  1
  O  O73  1  0.19700000  0.80310000  0.75000000  1
  O  O74  1  0.60610000  0.80300000  0.75000000  1
  O  O75  1  0.80310000  0.60610000  0.25000000  1
  O  O76  1  0.80300000  0.19690000  0.25000000  1
  O  O77  1  0.39390000  0.19700000  0.25000000  1
  O  O78  1  0.64470000  0.62800000  0.09040000  1
  O  O79  1  0.37200000  0.01670000  0.09040000  1
  O  O80  1  0.98330000  0.35530000  0.09040000  1
  O  O81  1  0.35530000  0.37200000  0.59040000  1
  O  O82  1  0.62800000  0.98330000  0.59040000  1
  O  O83  1  0.01670000  0.64470000  0.59040000  1
  O  O84  1  0.37200000  0.35530000  0.09040000  1
  O  O85  1  0.98330000  0.62800000  0.09040000  1
  O  O86  1  0.64470000  0.01670000  0.09040000  1
  O  O87  1  0.62800000  0.64470000  0.59040000  1
  O  O88  1  0.01670000  0.37200000  0.59040000  1
  O  O89  1  0.35530000  0.98330000  0.59040000  1
  O  O90  1  0.35530000  0.37200000  0.90960000  1
  O  O91  1  0.62800000  0.98330000  0.90960000  1
  O  O92  1  0.01670000  0.64470000  0.90960000  1
  O  O93  1  0.64470000  0.62800000  0.40960000  1
  O  O94  1  0.37200000  0.01670000  0.40960000  1
  O  O95  1  0.98330000  0.35530000  0.40960000  1
  O  O96  1  0.62800000  0.64470000  0.90960000  1
  O  O97  1  0.01670000  0.37200000  0.90960000  1
  O  O98  1  0.35530000  0.98330000  0.90960000  1
  O  O99  1  0.37200000  0.35530000  0.40960000  1
  O  O100  1  0.98330000  0.62800000  0.40960000  1
  O  O101  1  0.64470000  0.01670000  0.40960000  1
  O  O102  1  0.57460000  0.78730000  0.07500000  1
  O  O103  1  0.21270000  0.78730000  0.07500000  1
  O  O104  1  0.21270000  0.42540000  0.07500000  1
  O  O105  1  0.42540000  0.21270000  0.57500000  1
  O  O106  1  0.78730000  0.21270000  0.57500000  1
  O  O107  1  0.78730000  0.57460000  0.57500000  1
  O  O108  1  0.42540000  0.21270000  0.92500000  1
  O  O109  1  0.78730000  0.21270000  0.92500000  1
  O  O110  1  0.78730000  0.57460000  0.92500000  1
  O  O111  1  0.57460000  0.78730000  0.42500000  1
  O  O112  1  0.21270000  0.78730000  0.42500000  1
  O  O113  1  0.21270000  0.42540000  0.42500000  1
  O  O114  1  0.44300000  0.55700000  0.05610000  1
  O  O115  1  0.44300000  0.88600000  0.05610000  1
  O  O116  1  0.11400000  0.55700000  0.05610000  1
  O  O117  1  0.55700000  0.44300000  0.55610000  1
  O  O118  1  0.55700000  0.11400000  0.55610000  1
  O  O119  1  0.88600000  0.44300000  0.55610000  1
  O  O120  1  0.55700000  0.44300000  0.94390000  1
  O  O121  1  0.55700000  0.11400000  0.94390000  1
  O  O122  1  0.88600000  0.44300000  0.94390000  1
  O  O123  1  0.44300000  0.55700000  0.44390000  1
  O  O124  1  0.44300000  0.88600000  0.44390000  1
  O  O125  1  0.11400000  0.55700000  0.44390000  1
  O  O126  1  0.43440000  0.86880000  0.87160000  1
  O  O127  1  0.13120000  0.56560000  0.87160000  1
  O  O128  1  0.43440000  0.56560000  0.87160000  1
  O  O129  1  0.56560000  0.13120000  0.37160000  1
  O  O130  1  0.86880000  0.43440000  0.37160000  1
  O  O131  1  0.56560000  0.43440000  0.37160000  1
  O  O132  1  0.56560000  0.13120000  0.12840000  1
  O  O133  1  0.86880000  0.43440000  0.12840000  1
  O  O134  1  0.56560000  0.43440000  0.12840000  1
  O  O135  1  0.43440000  0.86880000  0.62840000  1
  O  O136  1  0.13120000  0.56560000  0.62840000  1
  O  O137  1  0.43440000  0.56560000  0.62840000  1
  O  O138  1  0.65290000  0.01120000  0.84610000  1
  O  O139  1  0.98880000  0.64170000  0.84610000  1
  O  O140  1  0.35830000  0.34710000  0.84610000  1
  O  O141  1  0.34710000  0.98880000  0.34610000  1
  O  O142  1  0.01120000  0.35830000  0.34610000  1
  O  O143  1  0.64170000  0.65290000  0.34610000  1
  O  O144  1  0.98880000  0.34710000  0.84610000  1
  O  O145  1  0.35830000  0.01120000  0.84610000  1
  O  O146  1  0.65290000  0.64170000  0.84610000  1
  O  O147  1  0.01120000  0.65290000  0.34610000  1
  O  O148  1  0.64170000  0.98880000  0.34610000  1
  O  O149  1  0.34710000  0.35830000  0.34610000  1
  O  O150  1  0.34710000  0.98880000  0.15390000  1
  O  O151  1  0.01120000  0.35830000  0.15390000  1
  O  O152  1  0.64170000  0.65290000  0.15390000  1
  O  O153  1  0.65290000  0.01120000  0.65390000  1
  O  O154  1  0.98880000  0.64170000  0.65390000  1
  O  O155  1  0.35830000  0.34710000  0.65390000  1
  O  O156  1  0.01120000  0.65290000  0.15390000  1
  O  O157  1  0.64170000  0.98880000  0.15390000  1
  O  O158  1  0.34710000  0.35830000  0.15390000  1
  O  O159  1  0.98880000  0.34710000  0.65390000  1
  O  O160  1  0.35830000  0.01120000  0.65390000  1
  O  O161  1  0.65290000  0.64170000  0.65390000  1
  O  O162  1  0.60230000  0.80120000  0.87250000  1
  O  O163  1  0.19880000  0.80110000  0.87250000  1
  O  O164  1  0.19890000  0.39770000  0.87250000  1
  O  O165  1  0.39770000  0.19880000  0.37250000  1
  O  O166  1  0.80120000  0.19890000  0.37250000  1
  O  O167  1  0.80110000  0.60230000  0.37250000  1
  O  O168  1  0.19880000  0.39770000  0.87250000  1
  O  O169  1  0.19890000  0.80120000  0.87250000  1
  O  O170  1  0.60230000  0.80110000  0.87250000  1
  O  O171  1  0.80120000  0.60230000  0.37250000  1
  O  O172  1  0.80110000  0.19880000  0.37250000  1
  O  O173  1  0.39770000  0.19890000  0.37250000  1
  O  O174  1  0.39770000  0.19880000  0.12750000  1
  O  O175  1  0.80120000  0.19890000  0.12750000  1
  O  O176  1  0.80110000  0.60230000  0.12750000  1
  O  O177  1  0.60230000  0.80120000  0.62750000  1
  O  O178  1  0.19880000  0.80110000  0.62750000  1
  O  O179  1  0.19890000  0.39770000  0.62750000  1
  O  O180  1  0.80120000  0.60230000  0.12750000  1
  O  O181  1  0.80110000  0.19880000  0.12750000  1
  O  O182  1  0.39770000  0.19890000  0.12750000  1
  O  O183  1  0.19880000  0.39770000  0.62750000  1
  O  O184  1  0.19890000  0.80120000  0.62750000  1
  O  O185  1  0.60230000  0.80110000  0.62750000  1
  O  O186  1  0.43350000  0.56650000  0.18610000  1
  O  O187  1  0.43350000  0.86700000  0.18610000  1
  O  O188  1  0.13300000  0.56650000  0.18610000  1
  O  O189  1  0.56650000  0.43350000  0.68610000  1
  O  O190  1  0.56650000  0.13300000  0.68610000  1
  O  O191  1  0.86700000  0.43350000  0.68610000  1
  O  O192  1  0.56650000  0.43350000  0.81390000  1
  O  O193  1  0.56650000  0.13300000  0.81390000  1
  O  O194  1  0.86700000  0.43350000  0.81390000  1
  O  O195  1  0.43350000  0.56650000  0.31390000  1
  O  O196  1  0.43350000  0.86700000  0.31390000  1
  O  O197  1  0.13300000  0.56650000  0.31390000  1
  O  O198  1  0.60200000  0.80100000  0.19030000  1
  O  O199  1  0.19900000  0.80100000  0.19030000  1
  O  O200  1  0.19900000  0.39800000  0.19030000  1
  O  O201  1  0.39800000  0.19900000  0.69030000  1
  O  O202  1  0.80100000  0.19900000  0.69030000  1
  O  O203  1  0.80100000  0.60200000  0.69030000  1
  O  O204  1  0.39800000  0.19900000  0.80970000  1
  O  O205  1  0.80100000  0.19900000  0.80970000  1
  O  O206  1  0.80100000  0.60200000  0.80970000  1
  O  O207  1  0.60200000  0.80100000  0.30970000  1
  O  O208  1  0.19900000  0.80100000  0.30970000  1
  O  O209  1  0.19900000  0.39800000  0.30970000  1
