# generated using pymatgen
data_SiO4
_symmetry_space_group_name_H-M   'P 1'
_cell_length_a   5.02100000
_cell_length_b   8.15100000
_cell_length_c   13.97700000
_cell_angle_alpha   90.00000000
_cell_angle_beta   90.00000000
_cell_angle_gamma   90.00000000
_symmetry_Int_Tables_number   1
_chemical_formula_structural   SiO4
_chemical_formula_sum   'Si1 O4'
_cell_volume   572.02509207
_cell_formula_units_Z   1
loop_
 _symmetry_equiv_pos_site_id
 _symmetry_equiv_pos_as_xyz
  1  'x, y, z'
loop_
 _atom_site_type_symbol
 _atom_site_label
 _atom_site_symmetry_multiplicity
 _atom_site_fract_x
 _atom_site_fract_y
 _atom_site_fract_z
 _atom_site_occupancy
  Si  Si0  1  0.88820000  0.18490000  0.70000000  1
  O  O1  1  1.13700000  0.29980000  0.72870000  1
  O  O2  1  0.63700000  0.20020000  0.77130000  1
  O  O3  1  0.77770000  0.23240000  0.59520000  1
  O  O4  1  1.00000000  0.00000000  0.69810000  1
