# generated using pymatgen
data_O2
_symmetry_space_group_name_H-M   'P 1'
_cell_length_a   5.02100000
_cell_length_b   8.15100000
_cell_length_c   13.97700000
_cell_angle_alpha   90.00000000
_cell_angle_beta   90.00000000
_cell_angle_gamma   90.00000000
_symmetry_Int_Tables_number   1
_chemical_formula_structural   O2
_chemical_formula_sum   O24
_cell_volume   572.02509207
_cell_formula_units_Z   12
loop_
 _symmetry_equiv_pos_site_id
 _symmetry_equiv_pos_as_xyz
  1  'x, y, z'
loop_
 _atom_site_type_symbol
 _atom_site_label
 _atom_site_symmetry_multiplicity
 _atom_site_fract_x
 _atom_site_fract_y
 _atom_site_fract_z
 _atom_site_occupancy
  O  O0  1  0.13700000  0.29980000  0.27130000  1
  O  O1  1  0.86300000  0.70020000  0.27130000  1
  O  O2  1  0.36300000  0.79980000  0.22870000  1
  O  O3  1  0.63700000  0.20020000  0.22870000  1
  O  O4  1  0.86300000  0.70020000  0.72870000  1
  O  O5  1  0.13700000  0.29980000  0.72870000  1
  O  O6  1  0.63700000  0.20020000  0.77130000  1
  O  O7  1  0.36300000  0.79980000  0.77130000  1
  O  O8  1  0.27770000  0.26760000  0.09520000  1
  O  O9  1  0.72230000  0.73240000  0.09520000  1
  O  O10  1  0.22230000  0.76760000  0.40480000  1
  O  O11  1  0.77770000  0.23240000  0.40480000  1
  O  O12  1  0.72230000  0.73240000  0.90480000  1
  O  O13  1  0.27770000  0.26760000  0.90480000  1
  O  O14  1  0.77770000  0.23240000  0.59520000  1
  O  O15  1  0.22230000  0.76760000  0.59520000  1
  O  O16  1  0.50000000  0.50000000  0.19810000  1
  O  O17  1  0.00000000  0.00000000  0.30190000  1
  O  O18  1  0.50000000  0.50000000  0.80190000  1
  O  O19  1  0.00000000  0.00000000  0.69810000  1
  O  O20  1  0.00000000  0.00000000  0.50000000  1
  O  O21  1  0.50000000  0.50000000  0.00000000  1
  O  O22  1  0.50000000  0.00000000  0.50000000  1
  O  O23  1  0.00000000  0.50000000  0.00000000  1
