# generated using pymatgen
data_SiO4
_symmetry_space_group_name_H-M   'P 1'
_cell_length_a   8.91400000
_cell_length_b   9.20900000
_cell_length_c   16.08700000
_cell_angle_alpha   90.00000000
_cell_angle_beta   90.00000000
_cell_angle_gamma   90.00000000
_symmetry_Int_Tables_number   1
_chemical_formula_structural   SiO4
_chemical_formula_sum   'Si1 O4'
_cell_volume   1320.56616126
_cell_formula_units_Z   1
loop_
 _symmetry_equiv_pos_site_id
 _symmetry_equiv_pos_as_xyz
  1  'x, y, z'
loop_
 _atom_site_type_symbol
 _atom_site_label
 _atom_site_symmetry_multiplicity
 _atom_site_fract_x
 _atom_site_fract_y
 _atom_site_fract_z
 _atom_site_occupancy
  Si  Si0  1  0.50690000  0.82910000  0.41440000  1
  O  O1  1  0.33520000  0.85570000  0.38750000  1
  O  O2  1  0.59760000  0.98020000  0.41270000  1
  O  O3  1  0.51400000  0.76250000  0.50680000  1
  O  O4  1  0.58550000  0.71700000  0.35110000  1
