# generated using pymatgen
data_O2
_symmetry_space_group_name_H-M   'P 1'
_cell_length_a   8.91400000
_cell_length_b   9.20900000
_cell_length_c   16.08700000
_cell_angle_alpha   90.00000000
_cell_angle_beta   90.00000000
_cell_angle_gamma   90.00000000
_symmetry_Int_Tables_number   1
_chemical_formula_structural   O2
_chemical_formula_sum   O48
_cell_volume   1320.56616126
_cell_formula_units_Z   24
loop_
 _symmetry_equiv_pos_site_id
 _symmetry_equiv_pos_as_xyz
  1  'x, y, z'
loop_
 _atom_site_type_symbol
 _atom_site_label
 _atom_site_symmetry_multiplicity
 _atom_site_fract_x
 _atom_site_fract_y
 _atom_site_fract_z
 _atom_site_occupancy
  O  O0  1  0.33520000  0.85570000  0.38750000  1
  O  O1  1  0.16480000  0.85570000  0.88750000  1
  O  O2  1  0.83520000  0.14430000  0.38750000  1
  O  O3  1  0.66480000  0.14430000  0.88750000  1
  O  O4  1  0.09310000  0.74550000  0.45720000  1
  O  O5  1  0.40690000  0.74550000  0.95720000  1
  O  O6  1  0.59310000  0.25450000  0.45720000  1
  O  O7  1  0.90690000  0.25450000  0.95720000  1
  O  O8  1  0.09020000  0.81300000  0.29950000  1
  O  O9  1  0.40980000  0.81300000  0.79950000  1
  O  O10  1  0.59020000  0.18700000  0.29950000  1
  O  O11  1  0.90980000  0.18700000  0.79950000  1
  O  O12  1  0.09760000  0.01980000  0.41270000  1
  O  O13  1  0.40240000  0.01980000  0.91270000  1
  O  O14  1  0.59760000  0.98020000  0.41270000  1
  O  O15  1  0.90240000  0.98020000  0.91270000  1
  O  O16  1  0.14140000  0.36210000  0.80840000  1
  O  O17  1  0.35860000  0.36210000  0.30840000  1
  O  O18  1  0.64140000  0.63790000  0.80840000  1
  O  O19  1  0.85860000  0.63790000  0.30840000  1
  O  O20  1  0.87110000  0.46630000  0.77840000  1
  O  O21  1  0.62890000  0.46630000  0.27840000  1
  O  O22  1  0.37110000  0.53370000  0.77840000  1
  O  O23  1  0.12890000  0.53370000  0.27840000  1
  O  O24  1  0.01180000  0.31510000  0.66410000  1
  O  O25  1  0.48820000  0.31510000  0.16410000  1
  O  O26  1  0.51180000  0.68490000  0.66410000  1
  O  O27  1  0.98820000  0.68490000  0.16410000  1
  O  O28  1  0.98600000  0.76250000  0.00680000  1
  O  O29  1  0.51400000  0.76250000  0.50680000  1
  O  O30  1  0.48600000  0.23750000  0.00680000  1
  O  O31  1  0.01400000  0.23750000  0.50680000  1
  O  O32  1  0.22600000  0.64060000  0.07000000  1
  O  O33  1  0.27400000  0.64060000  0.57000000  1
  O  O34  1  0.72600000  0.35940000  0.07000000  1
  O  O35  1  0.77400000  0.35940000  0.57000000  1
  O  O36  1  0.98610000  0.48450000  0.04640000  1
  O  O37  1  0.51390000  0.48450000  0.54640000  1
  O  O38  1  0.48610000  0.51550000  0.04640000  1
  O  O39  1  0.01390000  0.51550000  0.54640000  1
  O  O40  1  0.08550000  0.28300000  0.35110000  1
  O  O41  1  0.41450000  0.28300000  0.85110000  1
  O  O42  1  0.58550000  0.71700000  0.35110000  1
  O  O43  1  0.91450000  0.71700000  0.85110000  1
  O  O44  1  0.22250000  0.49340000  0.43200000  1
  O  O45  1  0.27750000  0.49340000  0.93200000  1
  O  O46  1  0.72250000  0.50660000  0.43200000  1
  O  O47  1  0.77750000  0.50660000  0.93200000  1
