# generated using pymatgen
data_Si
_symmetry_space_group_name_H-M   'P 1'
_cell_length_a   8.91400000
_cell_length_b   9.20900000
_cell_length_c   16.08700000
_cell_angle_alpha   90.00000000
_cell_angle_beta   90.00000000
_cell_angle_gamma   90.00000000
_symmetry_Int_Tables_number   1
_chemical_formula_structural   Si
_chemical_formula_sum   Si24
_cell_volume   1320.56616126
_cell_formula_units_Z   24
loop_
 _symmetry_equiv_pos_site_id
 _symmetry_equiv_pos_as_xyz
  1  'x, y, z'
loop_
 _atom_site_type_symbol
 _atom_site_label
 _atom_site_symmetry_multiplicity
 _atom_site_fract_x
 _atom_site_fract_y
 _atom_site_fract_z
 _atom_site_occupancy
  Si  Si0  1  0.15480000  0.85930000  0.38920000  1
  Si  Si1  1  0.34520000  0.85930000  0.88920000  1
  Si  Si2  1  0.65480000  0.14070000  0.38920000  1
  Si  Si3  1  0.84520000  0.14070000  0.88920000  1
  Si  Si4  1  0.04530000  0.64340000  0.07220000  1
  Si  Si5  1  0.45470000  0.64340000  0.57220000  1
  Si  Si6  1  0.54530000  0.35660000  0.07220000  1
  Si  Si7  1  0.95470000  0.35660000  0.57220000  1
  Si  Si8  1  0.19920000  0.41810000  0.34260000  1
  Si  Si9  1  0.30080000  0.41810000  0.84260000  1
  Si  Si10  1  0.69920000  0.58190000  0.34260000  1
  Si  Si11  1  0.80080000  0.58190000  0.84260000  1
  Si  Si12  1  0.98410000  0.33280000  0.76240000  1
  Si  Si13  1  0.51590000  0.33280000  0.26240000  1
  Si  Si14  1  0.48410000  0.66720000  0.76240000  1
  Si  Si15  1  0.01590000  0.66720000  0.26240000  1
  Si  Si16  1  0.15020000  0.59850000  0.50120000  1
  Si  Si17  1  0.34980000  0.59850000  0.00120000  1
  Si  Si18  1  0.65020000  0.40150000  0.50120000  1
  Si  Si19  1  0.84980000  0.40150000  0.00120000  1
  Si  Si20  1  0.00690000  0.17090000  0.41440000  1
  Si  Si21  1  0.49310000  0.17090000  0.91440000  1
  Si  Si22  1  0.50690000  0.82910000  0.41440000  1
  Si  Si23  1  0.99310000  0.82910000  0.91440000  1
