# generated using pymatgen
data_SiO4
_symmetry_space_group_name_H-M   'P 1'
_cell_length_a   14.35500000
_cell_length_b   7.16600000
_cell_length_c   9.08000000
_cell_angle_alpha   90.00000000
_cell_angle_beta   90.00000000
_cell_angle_gamma   90.00000000
_symmetry_Int_Tables_number   1
_chemical_formula_structural   SiO4
_chemical_formula_sum   'Si1 O4'
_cell_volume   934.04080440
_cell_formula_units_Z   1
loop_
 _symmetry_equiv_pos_site_id
 _symmetry_equiv_pos_as_xyz
  1  'x, y, z'
loop_
 _atom_site_type_symbol
 _atom_site_label
 _atom_site_symmetry_multiplicity
 _atom_site_fract_x
 _atom_site_fract_y
 _atom_site_fract_z
 _atom_site_occupancy
  Si  Si0  1  0.64290000  0.50000000  0.40510000  1
  O  O1  1  0.62340000  0.68350000  0.50260000  1
  O  O2  1  0.62340000  0.31650000  0.50260000  1
  O  O3  1  0.57660000  0.50000000  0.26220000  1
  O  O4  1  0.75000000  0.50000000  0.35260000  1
