# generated using pymatgen
data_O2
_symmetry_space_group_name_H-M   'P 1'
_cell_length_a   14.35500000
_cell_length_b   7.16600000
_cell_length_c   9.08000000
_cell_angle_alpha   90.00000000
_cell_angle_beta   90.00000000
_cell_angle_gamma   90.00000000
_symmetry_Int_Tables_number   1
_chemical_formula_structural   O2
_chemical_formula_sum   O32
_cell_volume   934.04080440
_cell_formula_units_Z   16
loop_
 _symmetry_equiv_pos_site_id
 _symmetry_equiv_pos_as_xyz
  1  'x, y, z'
loop_
 _atom_site_type_symbol
 _atom_site_label
 _atom_site_symmetry_multiplicity
 _atom_site_fract_x
 _atom_site_fract_y
 _atom_site_fract_z
 _atom_site_occupancy
  O  O0  1  0.07940000  0.31660000  0.21680000  1
  O  O1  1  0.42060000  0.31660000  0.21680000  1
  O  O2  1  0.07940000  0.68340000  0.21680000  1
  O  O3  1  0.42060000  0.68340000  0.21680000  1
  O  O4  1  0.92060000  0.68340000  0.78320000  1
  O  O5  1  0.57940000  0.68340000  0.78320000  1
  O  O6  1  0.92060000  0.31660000  0.78320000  1
  O  O7  1  0.57940000  0.31660000  0.78320000  1
  O  O8  1  0.11220000  0.00000000  0.35280000  1
  O  O9  1  0.38780000  0.00000000  0.35280000  1
  O  O10  1  0.88780000  0.00000000  0.64720000  1
  O  O11  1  0.61220000  0.00000000  0.64720000  1
  O  O12  1  0.12340000  0.31650000  0.49740000  1
  O  O13  1  0.37660000  0.31650000  0.49740000  1
  O  O14  1  0.12340000  0.68350000  0.49740000  1
  O  O15  1  0.37660000  0.68350000  0.49740000  1
  O  O16  1  0.87660000  0.68350000  0.50260000  1
  O  O17  1  0.62340000  0.68350000  0.50260000  1
  O  O18  1  0.87660000  0.31650000  0.50260000  1
  O  O19  1  0.62340000  0.31650000  0.50260000  1
  O  O20  1  0.25000000  0.23240000  0.29790000  1
  O  O21  1  0.25000000  0.76760000  0.29790000  1
  O  O22  1  0.75000000  0.76760000  0.70210000  1
  O  O23  1  0.75000000  0.23240000  0.70210000  1
  O  O24  1  0.07660000  0.50000000  0.73780000  1
  O  O25  1  0.42340000  0.50000000  0.73780000  1
  O  O26  1  0.92340000  0.50000000  0.26220000  1
  O  O27  1  0.57660000  0.50000000  0.26220000  1
  O  O28  1  0.25000000  0.50000000  0.64740000  1
  O  O29  1  0.75000000  0.50000000  0.35260000  1
  O  O30  1  0.00000000  0.50000000  0.00000000  1
  O  O31  1  0.50000000  0.50000000  0.00000000  1
