# generated using pymatgen
data_Si
_symmetry_space_group_name_H-M   'P 1'
_cell_length_a   14.35500000
_cell_length_b   7.16600000
_cell_length_c   9.08000000
_cell_angle_alpha   90.00000000
_cell_angle_beta   90.00000000
_cell_angle_gamma   90.00000000
_symmetry_Int_Tables_number   1
_chemical_formula_structural   Si
_chemical_formula_sum   Si16
_cell_volume   934.04080440
_cell_formula_units_Z   16
loop_
 _symmetry_equiv_pos_site_id
 _symmetry_equiv_pos_as_xyz
  1  'x, y, z'
loop_
 _atom_site_type_symbol
 _atom_site_label
 _atom_site_symmetry_multiplicity
 _atom_site_fract_x
 _atom_site_fract_y
 _atom_site_fract_z
 _atom_site_occupancy
  Si  Si0  1  0.14160000  0.21620000  0.34130000  1
  Si  Si1  1  0.35840000  0.21620000  0.34130000  1
  Si  Si2  1  0.14160000  0.78380000  0.34130000  1
  Si  Si3  1  0.35840000  0.78380000  0.34130000  1
  Si  Si4  1  0.85840000  0.78380000  0.65870000  1
  Si  Si5  1  0.64160000  0.78380000  0.65870000  1
  Si  Si6  1  0.85840000  0.21620000  0.65870000  1
  Si  Si7  1  0.64160000  0.21620000  0.65870000  1
  Si  Si8  1  0.14290000  0.50000000  0.59490000  1
  Si  Si9  1  0.35710000  0.50000000  0.59490000  1
  Si  Si10  1  0.85710000  0.50000000  0.40510000  1
  Si  Si11  1  0.64290000  0.50000000  0.40510000  1
  Si  Si12  1  0.02060000  0.50000000  0.17390000  1
  Si  Si13  1  0.47940000  0.50000000  0.17390000  1
  Si  Si14  1  0.97940000  0.50000000  0.82610000  1
  Si  Si15  1  0.52060000  0.50000000  0.82610000  1
