# generated using pymatgen
data_Si
_symmetry_space_group_name_H-M   'P 1'
_cell_length_a   13.96079000
_cell_length_b   5.26392000
_cell_length_c   25.96655000
_cell_angle_alpha   90.00000000
_cell_angle_beta   90.00000000
_cell_angle_gamma   90.00000000
_symmetry_Int_Tables_number   1
_chemical_formula_structural   Si
_chemical_formula_sum   Si32
_cell_volume   1908.24233440
_cell_formula_units_Z   32
loop_
 _symmetry_equiv_pos_site_id
 _symmetry_equiv_pos_as_xyz
  1  'x, y, z'
loop_
 _atom_site_type_symbol
 _atom_site_label
 _atom_site_symmetry_multiplicity
 _atom_site_fract_x
 _atom_site_fract_y
 _atom_site_fract_z
 _atom_site_occupancy
  Si  Si0  1  0.10762000  0.25000000  0.03462000  1
  Si  Si1  1  0.10762000  0.75000000  0.96538000  1
  Si  Si2  1  0.89238000  0.75000000  0.96538000  1
  Si  Si3  1  0.89238000  0.25000000  0.03462000  1
  Si  Si4  1  0.60762000  0.75000000  0.53462000  1
  Si  Si5  1  0.60762000  0.25000000  0.46538000  1
  Si  Si6  1  0.39238000  0.25000000  0.46538000  1
  Si  Si7  1  0.39238000  0.75000000  0.53462000  1
  Si  Si8  1  0.28960000  0.75000000  0.19186000  1
  Si  Si9  1  0.28960000  0.25000000  0.80814000  1
  Si  Si10  1  0.71040000  0.25000000  0.80814000  1
  Si  Si11  1  0.71040000  0.75000000  0.19186000  1
  Si  Si12  1  0.78960000  0.25000000  0.69186000  1
  Si  Si13  1  0.78960000  0.75000000  0.30814000  1
  Si  Si14  1  0.21040000  0.75000000  0.30814000  1
  Si  Si15  1  0.21040000  0.25000000  0.69186000  1
  Si  Si16  1  0.19874000  0.25000000  0.14213000  1
  Si  Si17  1  0.19874000  0.75000000  0.85787000  1
  Si  Si18  1  0.80126000  0.75000000  0.85787000  1
  Si  Si19  1  0.80126000  0.25000000  0.14213000  1
  Si  Si20  1  0.69874000  0.75000000  0.64213000  1
  Si  Si21  1  0.69874000  0.25000000  0.35787000  1
  Si  Si22  1  0.30126000  0.25000000  0.35787000  1
  Si  Si23  1  0.30126000  0.75000000  0.64213000  1
  Si  Si24  1  0.00000000  0.75000000  0.27432000  1
  Si  Si25  1  0.00000000  0.25000000  0.72568000  1
  Si  Si26  1  0.50000000  0.25000000  0.77432000  1
  Si  Si27  1  0.50000000  0.75000000  0.22568000  1
  Si  Si28  1  0.00000000  0.25000000  0.20351000  1
  Si  Si29  1  0.00000000  0.75000000  0.79649000  1
  Si  Si30  1  0.50000000  0.75000000  0.70351000  1
  Si  Si31  1  0.50000000  0.25000000  0.29649000  1
