# generated using pymatgen
data_O2
_symmetry_space_group_name_H-M   'P 1'
_cell_length_a   13.96079000
_cell_length_b   5.26392000
_cell_length_c   25.96655000
_cell_angle_alpha   90.00000000
_cell_angle_beta   90.00000000
_cell_angle_gamma   90.00000000
_symmetry_Int_Tables_number   1
_chemical_formula_structural   O2
_chemical_formula_sum   O64
_cell_volume   1908.24233440
_cell_formula_units_Z   32
loop_
 _symmetry_equiv_pos_site_id
 _symmetry_equiv_pos_as_xyz
  1  'x, y, z'
loop_
 _atom_site_type_symbol
 _atom_site_label
 _atom_site_symmetry_multiplicity
 _atom_site_fract_x
 _atom_site_fract_y
 _atom_site_fract_z
 _atom_site_occupancy
  O  O0  1  0.00000000  0.25000000  0.05711000  1
  O  O1  1  0.00000000  0.75000000  0.94289000  1
  O  O2  1  0.50000000  0.75000000  0.55711000  1
  O  O3  1  0.50000000  0.25000000  0.44289000  1
  O  O4  1  0.09397000  0.25000000  0.16787000  1
  O  O5  1  0.09397000  0.75000000  0.83213000  1
  O  O6  1  0.90603000  0.75000000  0.83213000  1
  O  O7  1  0.90603000  0.25000000  0.16787000  1
  O  O8  1  0.59397000  0.75000000  0.66787000  1
  O  O9  1  0.59397000  0.25000000  0.33213000  1
  O  O10  1  0.40603000  0.25000000  0.33213000  1
  O  O11  1  0.40603000  0.75000000  0.66787000  1
  O  O12  1  0.00000000  0.50005000  0.23889000  1
  O  O13  1  0.00000000  0.49995000  0.76111000  1
  O  O14  1  0.00000000  0.00005000  0.76111000  1
  O  O15  1  0.00000000  0.99995000  0.23889000  1
  O  O16  1  0.50000000  0.00005000  0.73889000  1
  O  O17  1  0.50000000  0.99995000  0.26111000  1
  O  O18  1  0.50000000  0.50005000  0.26111000  1
  O  O19  1  0.50000000  0.49995000  0.73889000  1
  O  O20  1  0.12334000  0.00000000  0.00000000  1
  O  O21  1  0.12334000  0.50000000  0.00000000  1
  O  O22  1  0.87666000  0.00000000  0.00000000  1
  O  O23  1  0.87666000  0.50000000  0.00000000  1
  O  O24  1  0.62334000  0.50000000  0.50000000  1
  O  O25  1  0.62334000  0.00000000  0.50000000  1
  O  O26  1  0.37666000  0.50000000  0.50000000  1
  O  O27  1  0.37666000  0.00000000  0.50000000  1
  O  O28  1  0.18514000  0.25000000  0.08055000  1
  O  O29  1  0.18514000  0.75000000  0.91945000  1
  O  O30  1  0.81486000  0.75000000  0.91945000  1
  O  O31  1  0.81486000  0.25000000  0.08055000  1
  O  O32  1  0.68514000  0.75000000  0.58055000  1
  O  O33  1  0.68514000  0.25000000  0.41945000  1
  O  O34  1  0.31486000  0.25000000  0.41945000  1
  O  O35  1  0.31486000  0.75000000  0.58055000  1
  O  O36  1  0.25000000  0.75000000  0.25000000  1
  O  O37  1  0.25000000  0.25000000  0.75000000  1
  O  O38  1  0.75000000  0.25000000  0.75000000  1
  O  O39  1  0.75000000  0.75000000  0.25000000  1
  O  O40  1  0.09497000  0.75000000  0.30932000  1
  O  O41  1  0.09497000  0.25000000  0.69068000  1
  O  O42  1  0.90503000  0.25000000  0.69068000  1
  O  O43  1  0.90503000  0.75000000  0.30932000  1
  O  O44  1  0.59497000  0.25000000  0.80932000  1
  O  O45  1  0.59497000  0.75000000  0.19068000  1
  O  O46  1  0.40503000  0.75000000  0.19068000  1
  O  O47  1  0.40503000  0.25000000  0.80932000  1
  O  O48  1  0.25418000  0.50057000  0.16131000  1
  O  O49  1  0.25418000  0.49943000  0.83869000  1
  O  O50  1  0.25418000  0.00057000  0.83869000  1
  O  O51  1  0.25418000  0.99943000  0.16131000  1
  O  O52  1  0.74582000  0.49943000  0.83869000  1
  O  O53  1  0.74582000  0.50057000  0.16131000  1
  O  O54  1  0.74582000  0.99943000  0.16131000  1
  O  O55  1  0.74582000  0.00057000  0.83869000  1
  O  O56  1  0.75418000  0.00057000  0.66131000  1
  O  O57  1  0.75418000  0.99943000  0.33869000  1
  O  O58  1  0.75418000  0.50057000  0.33869000  1
  O  O59  1  0.75418000  0.49943000  0.66131000  1
  O  O60  1  0.24582000  0.99943000  0.33869000  1
  O  O61  1  0.24582000  0.00057000  0.66131000  1
  O  O62  1  0.24582000  0.49943000  0.66131000  1
  O  O63  1  0.24582000  0.50057000  0.33869000  1
