# generated using pymatgen
data_SiO4
_symmetry_space_group_name_H-M   'P 1'
_cell_length_a   13.96079000
_cell_length_b   5.26392000
_cell_length_c   25.96655000
_cell_angle_alpha   90.00000000
_cell_angle_beta   90.00000000
_cell_angle_gamma   90.00000000
_symmetry_Int_Tables_number   1
_chemical_formula_structural   SiO4
_chemical_formula_sum   'Si1 O4'
_cell_volume   1908.24233440
_cell_formula_units_Z   1
loop_
 _symmetry_equiv_pos_site_id
 _symmetry_equiv_pos_as_xyz
  1  'x, y, z'
loop_
 _atom_site_type_symbol
 _atom_site_label
 _atom_site_symmetry_multiplicity
 _atom_site_fract_x
 _atom_site_fract_y
 _atom_site_fract_z
 _atom_site_occupancy
  Si  Si0  1  0.28960000  0.75000000  0.19186000  1
  O  O1  1  0.25000000  0.75000000  0.25000000  1
  O  O2  1  0.40503000  0.75000000  0.19068000  1
  O  O3  1  0.25418000  0.50057000  0.16131000  1
  O  O4  1  0.25418000  0.99943000  0.16131000  1
