# generated using pymatgen
data_Si
_symmetry_space_group_name_H-M   'P 1'
_cell_length_a   13.23810000
_cell_length_b   13.23810000
_cell_length_c   17.48200000
_cell_angle_alpha   90.00000000
_cell_angle_beta   90.00000000
_cell_angle_gamma   120.00000000
_symmetry_Int_Tables_number   1
_chemical_formula_structural   Si
_chemical_formula_sum   Si42
_cell_volume   2653.21877846
_cell_formula_units_Z   42
loop_
 _symmetry_equiv_pos_site_id
 _symmetry_equiv_pos_as_xyz
  1  'x, y, z'
loop_
 _atom_site_type_symbol
 _atom_site_label
 _atom_site_symmetry_multiplicity
 _atom_site_fract_x
 _atom_site_fract_y
 _atom_site_fract_z
 _atom_site_occupancy
  Si  Si0  1  0.99980000  0.23820000  0.41270000  1
  Si  Si1  1  0.76180000  0.76160000  0.41270000  1
  Si  Si2  1  0.23840000  0.00020000  0.41270000  1
  Si  Si3  1  0.23820000  0.99980000  0.58730000  1
  Si  Si4  1  0.76160000  0.76180000  0.58730000  1
  Si  Si5  1  0.00020000  0.23840000  0.58730000  1
  Si  Si6  1  0.00020000  0.76180000  0.58730000  1
  Si  Si7  1  0.23820000  0.23840000  0.58730000  1
  Si  Si8  1  0.76160000  0.99980000  0.58730000  1
  Si  Si9  1  0.76180000  0.00020000  0.41270000  1
  Si  Si10  1  0.23840000  0.23820000  0.41270000  1
  Si  Si11  1  0.99980000  0.76160000  0.41270000  1
  Si  Si12  1  0.10130000  0.43540000  0.12490000  1
  Si  Si13  1  0.56460000  0.66590000  0.12490000  1
  Si  Si14  1  0.33410000  0.89870000  0.12490000  1
  Si  Si15  1  0.43540000  0.10130000  0.87510000  1
  Si  Si16  1  0.66590000  0.56460000  0.87510000  1
  Si  Si17  1  0.89870000  0.33410000  0.87510000  1
  Si  Si18  1  0.89870000  0.56460000  0.87510000  1
  Si  Si19  1  0.43540000  0.33410000  0.87510000  1
  Si  Si20  1  0.66590000  0.10130000  0.87510000  1
  Si  Si21  1  0.56460000  0.89870000  0.12490000  1
  Si  Si22  1  0.33410000  0.43540000  0.12490000  1
  Si  Si23  1  0.10130000  0.66590000  0.12490000  1
  Si  Si24  1  0.09570000  0.43090000  0.30110000  1
  Si  Si25  1  0.56910000  0.66480000  0.30110000  1
  Si  Si26  1  0.33520000  0.90430000  0.30110000  1
  Si  Si27  1  0.43090000  0.09570000  0.69890000  1
  Si  Si28  1  0.66480000  0.56910000  0.69890000  1
  Si  Si29  1  0.90430000  0.33520000  0.69890000  1
  Si  Si30  1  0.90430000  0.56910000  0.69890000  1
  Si  Si31  1  0.43090000  0.33520000  0.69890000  1
  Si  Si32  1  0.66480000  0.09570000  0.69890000  1
  Si  Si33  1  0.56910000  0.90430000  0.30110000  1
  Si  Si34  1  0.33520000  0.43090000  0.30110000  1
  Si  Si35  1  0.09570000  0.66480000  0.30110000  1
  Si  Si36  1  0.00000000  0.23770000  0.00000000  1
  Si  Si37  1  0.76230000  0.76230000  0.00000000  1
  Si  Si38  1  0.23770000  0.00000000  0.00000000  1
  Si  Si39  1  0.00000000  0.76230000  0.00000000  1
  Si  Si40  1  0.23770000  0.23770000  0.00000000  1
  Si  Si41  1  0.76230000  0.00000000  0.00000000  1
