# generated using pymatgen
data_O2
_symmetry_space_group_name_H-M   'P 1'
_cell_length_a   13.23810000
_cell_length_b   13.23810000
_cell_length_c   17.48200000
_cell_angle_alpha   90.00000000
_cell_angle_beta   90.00000000
_cell_angle_gamma   120.00000000
_symmetry_Int_Tables_number   1
_chemical_formula_structural   O2
_chemical_formula_sum   O84
_cell_volume   2653.21877846
_cell_formula_units_Z   42
loop_
 _symmetry_equiv_pos_site_id
 _symmetry_equiv_pos_as_xyz
  1  'x, y, z'
loop_
 _atom_site_type_symbol
 _atom_site_label
 _atom_site_symmetry_multiplicity
 _atom_site_fract_x
 _atom_site_fract_y
 _atom_site_fract_z
 _atom_site_occupancy
  O  O0  1  0.11550000  0.23110000  0.39590000  1
  O  O1  1  0.76890000  0.88440000  0.39590000  1
  O  O2  1  0.11560000  0.88450000  0.39590000  1
  O  O3  1  0.23110000  0.11550000  0.60410000  1
  O  O4  1  0.88440000  0.76890000  0.60410000  1
  O  O5  1  0.88450000  0.11560000  0.60410000  1
  O  O6  1  0.99730000  0.33170000  0.35490000  1
  O  O7  1  0.66830000  0.66560000  0.35490000  1
  O  O8  1  0.33440000  0.00270000  0.35490000  1
  O  O9  1  0.33170000  0.99730000  0.64510000  1
  O  O10  1  0.66560000  0.66830000  0.64510000  1
  O  O11  1  0.00270000  0.33440000  0.64510000  1
  O  O12  1  0.00270000  0.66830000  0.64510000  1
  O  O13  1  0.33170000  0.33440000  0.64510000  1
  O  O14  1  0.66560000  0.99730000  0.64510000  1
  O  O15  1  0.66830000  0.00270000  0.35490000  1
  O  O16  1  0.33440000  0.33170000  0.35490000  1
  O  O17  1  0.99730000  0.66560000  0.35490000  1
  O  O18  1  0.88770000  0.11230000  0.39670000  1
  O  O19  1  0.88770000  0.77540000  0.39670000  1
  O  O20  1  0.22460000  0.11230000  0.39670000  1
  O  O21  1  0.11230000  0.88770000  0.60330000  1
  O  O22  1  0.77540000  0.88770000  0.60330000  1
  O  O23  1  0.11230000  0.22460000  0.60330000  1
  O  O24  1  0.00000000  0.27670000  0.50000000  1
  O  O25  1  0.72330000  0.72330000  0.50000000  1
  O  O26  1  0.27670000  0.00000000  0.50000000  1
  O  O27  1  0.00000000  0.72330000  0.50000000  1
  O  O28  1  0.27670000  0.27670000  0.50000000  1
  O  O29  1  0.72330000  0.00000000  0.50000000  1
  O  O30  1  0.23740000  0.47480000  0.11830000  1
  O  O31  1  0.52520000  0.76260000  0.11830000  1
  O  O32  1  0.23740000  0.76260000  0.11830000  1
  O  O33  1  0.47480000  0.23740000  0.88170000  1
  O  O34  1  0.76260000  0.52520000  0.88170000  1
  O  O35  1  0.76260000  0.23740000  0.88170000  1
  O  O36  1  0.02580000  0.32150000  0.07290000  1
  O  O37  1  0.67850000  0.70430000  0.07290000  1
  O  O38  1  0.29570000  0.97420000  0.07290000  1
  O  O39  1  0.32150000  0.02580000  0.92710000  1
  O  O40  1  0.70430000  0.67850000  0.92710000  1
  O  O41  1  0.97420000  0.29570000  0.92710000  1
  O  O42  1  0.97420000  0.67850000  0.92710000  1
  O  O43  1  0.32150000  0.29570000  0.92710000  1
  O  O44  1  0.70430000  0.02580000  0.92710000  1
  O  O45  1  0.67850000  0.97420000  0.07290000  1
  O  O46  1  0.29570000  0.32150000  0.07290000  1
  O  O47  1  0.02580000  0.70430000  0.07290000  1
  O  O48  1  0.08220000  0.54110000  0.09800000  1
  O  O49  1  0.45890000  0.54110000  0.09800000  1
  O  O50  1  0.45890000  0.91780000  0.09800000  1
  O  O51  1  0.54110000  0.08220000  0.90200000  1
  O  O52  1  0.54110000  0.45890000  0.90200000  1
  O  O53  1  0.91780000  0.45890000  0.90200000  1
  O  O54  1  0.05980000  0.40330000  0.21250000  1
  O  O55  1  0.59670000  0.65650000  0.21250000  1
  O  O56  1  0.34350000  0.94020000  0.21250000  1
  O  O57  1  0.40330000  0.05980000  0.78750000  1
  O  O58  1  0.65650000  0.59670000  0.78750000  1
  O  O59  1  0.94020000  0.34350000  0.78750000  1
  O  O60  1  0.94020000  0.59670000  0.78750000  1
  O  O61  1  0.40330000  0.34350000  0.78750000  1
  O  O62  1  0.65650000  0.05980000  0.78750000  1
  O  O63  1  0.59670000  0.94020000  0.21250000  1
  O  O64  1  0.34350000  0.40330000  0.21250000  1
  O  O65  1  0.05980000  0.65650000  0.21250000  1
  O  O66  1  0.21730000  0.43460000  0.31630000  1
  O  O67  1  0.56540000  0.78270000  0.31630000  1
  O  O68  1  0.21730000  0.78270000  0.31630000  1
  O  O69  1  0.43460000  0.21730000  0.68370000  1
  O  O70  1  0.78270000  0.56540000  0.68370000  1
  O  O71  1  0.78270000  0.21730000  0.68370000  1
  O  O72  1  0.11030000  0.55510000  0.32410000  1
  O  O73  1  0.44490000  0.55520000  0.32410000  1
  O  O74  1  0.44480000  0.88970000  0.32410000  1
  O  O75  1  0.55510000  0.11030000  0.67590000  1
  O  O76  1  0.55520000  0.44490000  0.67590000  1
  O  O77  1  0.88970000  0.44480000  0.67590000  1
  O  O78  1  0.88830000  0.11170000  0.01700000  1
  O  O79  1  0.88830000  0.77660000  0.01700000  1
  O  O80  1  0.22340000  0.11170000  0.01700000  1
  O  O81  1  0.11170000  0.88830000  0.98300000  1
  O  O82  1  0.77660000  0.88830000  0.98300000  1
  O  O83  1  0.11170000  0.22340000  0.98300000  1
