# generated using pymatgen
data_SiO4
_symmetry_space_group_name_H-M   'P 1'
_cell_length_a   13.23810000
_cell_length_b   13.23810000
_cell_length_c   17.48200000
_cell_angle_alpha   90.00000000
_cell_angle_beta   90.00000000
_cell_angle_gamma   120.00000000
_symmetry_Int_Tables_number   1
_chemical_formula_structural   SiO4
_chemical_formula_sum   'Si1 O4'
_cell_volume   2653.21877846
_cell_formula_units_Z   1
loop_
 _symmetry_equiv_pos_site_id
 _symmetry_equiv_pos_as_xyz
  1  'x, y, z'
loop_
 _atom_site_type_symbol
 _atom_site_label
 _atom_site_symmetry_multiplicity
 _atom_site_fract_x
 _atom_site_fract_y
 _atom_site_fract_z
 _atom_site_occupancy
  Si  Si0  1  0.56910000  0.90430000  0.30110000  1
  O  O1  1  0.66830000  1.00270000  0.35490000  1
  O  O2  1  0.59670000  0.94020000  0.21250000  1
  O  O3  1  0.56540000  0.78270000  0.31630000  1
  O  O4  1  0.44480000  0.88970000  0.32410000  1
