# generated using pymatgen
data_Si
_symmetry_space_group_name_H-M   'P 1'
_cell_length_a   20.88423000
_cell_length_b   9.15764000
_cell_length_c   8.60561000
_cell_angle_alpha   90.00000000
_cell_angle_beta   89.62619000
_cell_angle_gamma   90.00000000
_symmetry_Int_Tables_number   1
_chemical_formula_structural   Si
_chemical_formula_sum   Si32
_cell_volume   1645.79012264
_cell_formula_units_Z   32
loop_
 _symmetry_equiv_pos_site_id
 _symmetry_equiv_pos_as_xyz
  1  'x, y, z'
loop_
 _atom_site_type_symbol
 _atom_site_label
 _atom_site_symmetry_multiplicity
 _atom_site_fract_x
 _atom_site_fract_y
 _atom_site_fract_z
 _atom_site_occupancy
  Si  Si0  1  0.06869000  0.17173000  0.30326000  1
  Si  Si1  1  0.93131000  0.17173000  0.19674000  1
  Si  Si2  1  0.93131000  0.82827000  0.69674000  1
  Si  Si3  1  0.06869000  0.82827000  0.80326000  1
  Si  Si4  1  0.56869000  0.67173000  0.30326000  1
  Si  Si5  1  0.43131000  0.67173000  0.19674000  1
  Si  Si6  1  0.43131000  0.32827000  0.69674000  1
  Si  Si7  1  0.56869000  0.32827000  0.80326000  1
  Si  Si8  1  0.24277000  0.03197000  0.44888000  1
  Si  Si9  1  0.75723000  0.03197000  0.05112000  1
  Si  Si10  1  0.75723000  0.96803000  0.55112000  1
  Si  Si11  1  0.24277000  0.96803000  0.94888000  1
  Si  Si12  1  0.74277000  0.53197000  0.44888000  1
  Si  Si13  1  0.25723000  0.53197000  0.05112000  1
  Si  Si14  1  0.25723000  0.46803000  0.55112000  1
  Si  Si15  1  0.74277000  0.46803000  0.94888000  1
  Si  Si16  1  0.19971000  0.30675000  0.27757000  1
  Si  Si17  1  0.80029000  0.30675000  0.22243000  1
  Si  Si18  1  0.80029000  0.69325000  0.72243000  1
  Si  Si19  1  0.19971000  0.69325000  0.77757000  1
  Si  Si20  1  0.69971000  0.80675000  0.27757000  1
  Si  Si21  1  0.30029000  0.80675000  0.22243000  1
  Si  Si22  1  0.30029000  0.19325000  0.72243000  1
  Si  Si23  1  0.69971000  0.19325000  0.77757000  1
  Si  Si24  1  0.11842000  0.09677000  0.61996000  1
  Si  Si25  1  0.88158000  0.09677000  0.88004000  1
  Si  Si26  1  0.88158000  0.90323000  0.38004000  1
  Si  Si27  1  0.11842000  0.90323000  0.11996000  1
  Si  Si28  1  0.61842000  0.59677000  0.61996000  1
  Si  Si29  1  0.38158000  0.59677000  0.88004000  1
  Si  Si30  1  0.38158000  0.40323000  0.38004000  1
  Si  Si31  1  0.61842000  0.40323000  0.11996000  1
