# generated using pymatgen
data_O2
_symmetry_space_group_name_H-M   'P 1'
_cell_length_a   20.88423000
_cell_length_b   9.15764000
_cell_length_c   8.60561000
_cell_angle_alpha   90.00000000
_cell_angle_beta   89.62619000
_cell_angle_gamma   90.00000000
_symmetry_Int_Tables_number   1
_chemical_formula_structural   O2
_chemical_formula_sum   O68
_cell_volume   1645.79012264
_cell_formula_units_Z   34
loop_
 _symmetry_equiv_pos_site_id
 _symmetry_equiv_pos_as_xyz
  1  'x, y, z'
loop_
 _atom_site_type_symbol
 _atom_site_label
 _atom_site_symmetry_multiplicity
 _atom_site_fract_x
 _atom_site_fract_y
 _atom_site_fract_z
 _atom_site_occupancy
  O  O0  1  0.07853000  0.01033000  0.23288000  1
  O  O1  1  0.92147000  0.01033000  0.26712000  1
  O  O2  1  0.92147000  0.98967000  0.76712000  1
  O  O3  1  0.07853000  0.98967000  0.73288000  1
  O  O4  1  0.57853000  0.51033000  0.23288000  1
  O  O5  1  0.42147000  0.51033000  0.26712000  1
  O  O6  1  0.42147000  0.48967000  0.76712000  1
  O  O7  1  0.57853000  0.48967000  0.73288000  1
  O  O8  1  0.07145000  0.16306000  0.49005000  1
  O  O9  1  0.92855000  0.16306000  0.00995000  1
  O  O10  1  0.92855000  0.83694000  0.50995000  1
  O  O11  1  0.07145000  0.83694000  0.99005000  1
  O  O12  1  0.57145000  0.66306000  0.49005000  1
  O  O13  1  0.42855000  0.66306000  0.00995000  1
  O  O14  1  0.42855000  0.33694000  0.50995000  1
  O  O15  1  0.57145000  0.33694000  0.99005000  1
  O  O16  1  0.12524000  0.27688000  0.24184000  1
  O  O17  1  0.87476000  0.27688000  0.25816000  1
  O  O18  1  0.87476000  0.72312000  0.75816000  1
  O  O19  1  0.12524000  0.72312000  0.74184000  1
  O  O20  1  0.62524000  0.77688000  0.24184000  1
  O  O21  1  0.37476000  0.77688000  0.25816000  1
  O  O22  1  0.37476000  0.22312000  0.75816000  1
  O  O23  1  0.62524000  0.22312000  0.74184000  1
  O  O24  1  0.17502000  0.99307000  0.03528000  1
  O  O25  1  0.82498000  0.99307000  0.46472000  1
  O  O26  1  0.82498000  0.00693000  0.96472000  1
  O  O27  1  0.17502000  0.00693000  0.53528000  1
  O  O28  1  0.67502000  0.49307000  0.03528000  1
  O  O29  1  0.32498000  0.49307000  0.46472000  1
  O  O30  1  0.32498000  0.50693000  0.96472000  1
  O  O31  1  0.67502000  0.50693000  0.53528000  1
  O  O32  1  0.20564000  0.41355000  0.42547000  1
  O  O33  1  0.79436000  0.41355000  0.07453000  1
  O  O34  1  0.79436000  0.58645000  0.57453000  1
  O  O35  1  0.20564000  0.58645000  0.92547000  1
  O  O36  1  0.70564000  0.91355000  0.42547000  1
  O  O37  1  0.29436000  0.91355000  0.07453000  1
  O  O38  1  0.29436000  0.08645000  0.57453000  1
  O  O39  1  0.70564000  0.08645000  0.92547000  1
  O  O40  1  0.23465000  0.15434000  0.31608000  1
  O  O41  1  0.76535000  0.15434000  0.18392000  1
  O  O42  1  0.76535000  0.84566000  0.68392000  1
  O  O43  1  0.23465000  0.84566000  0.81608000  1
  O  O44  1  0.73465000  0.65434000  0.31608000  1
  O  O45  1  0.26535000  0.65434000  0.18392000  1
  O  O46  1  0.26535000  0.34566000  0.68392000  1
  O  O47  1  0.73465000  0.34566000  0.81608000  1
  O  O48  1  0.23333000  0.38139000  0.12862000  1
  O  O49  1  0.76667000  0.38139000  0.37138000  1
  O  O50  1  0.76667000  0.61861000  0.87138000  1
  O  O51  1  0.23333000  0.61861000  0.62862000  1
  O  O52  1  0.73333000  0.88139000  0.12862000  1
  O  O53  1  0.26667000  0.88139000  0.37138000  1
  O  O54  1  0.26667000  0.11861000  0.87138000  1
  O  O55  1  0.73333000  0.11861000  0.62862000  1
  O  O56  1  0.00000000  0.23330000  0.25000000  1
  O  O57  1  0.00000000  0.76670000  0.75000000  1
  O  O58  1  0.50000000  0.73330000  0.25000000  1
  O  O59  1  0.50000000  0.26670000  0.75000000  1
  O  O60  1  0.35131000  0.27210000  0.27986000  1
  O  O61  1  0.64869000  0.27210000  0.22014000  1
  O  O62  1  0.64869000  0.72790000  0.72014000  1
  O  O63  1  0.35131000  0.72790000  0.77986000  1
  O  O64  1  0.85131000  0.77210000  0.27986000  1
  O  O65  1  0.14869000  0.77210000  0.22014000  1
  O  O66  1  0.14869000  0.22790000  0.72014000  1
  O  O67  1  0.85131000  0.22790000  0.77986000  1
