# generated using pymatgen
data_SiO4
_symmetry_space_group_name_H-M   'P 1'
_cell_length_a   20.88423000
_cell_length_b   9.15764000
_cell_length_c   8.60561000
_cell_angle_alpha   90.00000000
_cell_angle_beta   89.62619000
_cell_angle_gamma   90.00000000
_symmetry_Int_Tables_number   1
_chemical_formula_structural   SiO4
_chemical_formula_sum   'Si1 O4'
_cell_volume   1645.79012264
_cell_formula_units_Z   1
loop_
 _symmetry_equiv_pos_site_id
 _symmetry_equiv_pos_as_xyz
  1  'x, y, z'
loop_
 _atom_site_type_symbol
 _atom_site_label
 _atom_site_symmetry_multiplicity
 _atom_site_fract_x
 _atom_site_fract_y
 _atom_site_fract_z
 _atom_site_occupancy
  Si  Si0  1  0.25723000  0.53197000  0.05112000  1
  O  O1  1  0.32498000  0.50693000  -0.03528000  1
  O  O2  1  0.20564000  0.58645000  -0.07453000  1
  O  O3  1  0.26535000  0.65434000  0.18392000  1
  O  O4  1  0.23333000  0.38139000  0.12862000  1
