# generated using pymatgen
data_SiO4
_symmetry_space_group_name_H-M   'P 1'
_cell_length_a   22.58500000
_cell_length_b   13.56800000
_cell_length_c   6.97100000
_cell_angle_alpha   90.00000000
_cell_angle_beta   99.01600000
_cell_angle_gamma   90.00000000
_symmetry_Int_Tables_number   1
_chemical_formula_structural   SiO4
_chemical_formula_sum   'Si1 O4'
_cell_volume   2109.75348876
_cell_formula_units_Z   1
loop_
 _symmetry_equiv_pos_site_id
 _symmetry_equiv_pos_as_xyz
  1  'x, y, z'
loop_
 _atom_site_type_symbol
 _atom_site_label
 _atom_site_symmetry_multiplicity
 _atom_site_fract_x
 _atom_site_fract_y
 _atom_site_fract_z
 _atom_site_occupancy
  Si  Si0  1  0.93110000  0.11360000  0.98220000  1
  O  O1  1  0.92820000  0.00000000  1.04670000  1
  O  O2  1  1.00000000  0.14770000  1.00000000  1
  O  O3  1  0.89750000  0.18130000  1.12150000  1
  O  O4  1  0.89870000  0.12600000  0.76070000  1
