# generated using pymatgen
data_O2
_symmetry_space_group_name_H-M   'P 1'
_cell_length_a   22.58500000
_cell_length_b   13.56800000
_cell_length_c   6.97100000
_cell_angle_alpha   90.00000000
_cell_angle_beta   99.01600000
_cell_angle_gamma   90.00000000
_symmetry_Int_Tables_number   1
_chemical_formula_structural   O2
_chemical_formula_sum   O64
_cell_volume   2109.75348876
_cell_formula_units_Z   32
loop_
 _symmetry_equiv_pos_site_id
 _symmetry_equiv_pos_as_xyz
  1  'x, y, z'
loop_
 _atom_site_type_symbol
 _atom_site_label
 _atom_site_symmetry_multiplicity
 _atom_site_fract_x
 _atom_site_fract_y
 _atom_site_fract_z
 _atom_site_occupancy
  O  O0  1  0.92820000  0.00000000  0.04670000  1
  O  O1  1  0.42820000  0.50000000  0.04670000  1
  O  O2  1  0.07180000  0.00000000  0.95330000  1
  O  O3  1  0.57180000  0.50000000  0.95330000  1
  O  O4  1  0.78410000  0.12970000  0.08250000  1
  O  O5  1  0.28410000  0.62970000  0.08250000  1
  O  O6  1  0.21590000  0.12970000  0.91750000  1
  O  O7  1  0.71590000  0.62970000  0.91750000  1
  O  O8  1  0.21590000  0.87030000  0.91750000  1
  O  O9  1  0.71590000  0.37030000  0.91750000  1
  O  O10  1  0.78410000  0.87030000  0.08250000  1
  O  O11  1  0.28410000  0.37030000  0.08250000  1
  O  O12  1  0.00000000  0.14770000  0.00000000  1
  O  O13  1  0.50000000  0.64770000  0.00000000  1
  O  O14  1  0.00000000  0.85230000  0.00000000  1
  O  O15  1  0.50000000  0.35230000  0.00000000  1
  O  O16  1  0.72080000  0.00000000  0.85620000  1
  O  O17  1  0.22080000  0.50000000  0.85620000  1
  O  O18  1  0.27920000  0.00000000  0.14380000  1
  O  O19  1  0.77920000  0.50000000  0.14380000  1
  O  O20  1  0.84100000  0.18550000  0.42390000  1
  O  O21  1  0.34100000  0.68550000  0.42390000  1
  O  O22  1  0.15900000  0.18550000  0.57610000  1
  O  O23  1  0.65900000  0.68550000  0.57610000  1
  O  O24  1  0.15900000  0.81450000  0.57610000  1
  O  O25  1  0.65900000  0.31450000  0.57610000  1
  O  O26  1  0.84100000  0.81450000  0.42390000  1
  O  O27  1  0.34100000  0.31450000  0.42390000  1
  O  O28  1  0.81450000  0.68490000  0.14370000  1
  O  O29  1  0.31450000  0.18490000  0.14370000  1
  O  O30  1  0.18550000  0.68490000  0.85630000  1
  O  O31  1  0.68550000  0.18490000  0.85630000  1
  O  O32  1  0.18550000  0.31510000  0.85630000  1
  O  O33  1  0.68550000  0.81510000  0.85630000  1
  O  O34  1  0.81450000  0.31510000  0.14370000  1
  O  O35  1  0.31450000  0.81510000  0.14370000  1
  O  O36  1  0.89750000  0.18130000  0.12150000  1
  O  O37  1  0.39750000  0.68130000  0.12150000  1
  O  O38  1  0.10250000  0.18130000  0.87850000  1
  O  O39  1  0.60250000  0.68130000  0.87850000  1
  O  O40  1  0.10250000  0.81870000  0.87850000  1
  O  O41  1  0.60250000  0.31870000  0.87850000  1
  O  O42  1  0.89750000  0.81870000  0.12150000  1
  O  O43  1  0.39750000  0.31870000  0.12150000  1
  O  O44  1  0.78100000  0.86200000  0.70440000  1
  O  O45  1  0.28100000  0.36200000  0.70440000  1
  O  O46  1  0.21900000  0.86200000  0.29560000  1
  O  O47  1  0.71900000  0.36200000  0.29560000  1
  O  O48  1  0.21900000  0.13800000  0.29560000  1
  O  O49  1  0.71900000  0.63800000  0.29560000  1
  O  O50  1  0.78100000  0.13800000  0.70440000  1
  O  O51  1  0.28100000  0.63800000  0.70440000  1
  O  O52  1  0.89870000  0.12600000  0.76070000  1
  O  O53  1  0.39870000  0.62600000  0.76070000  1
  O  O54  1  0.10130000  0.12600000  0.23930000  1
  O  O55  1  0.60130000  0.62600000  0.23930000  1
  O  O56  1  0.10130000  0.87400000  0.23930000  1
  O  O57  1  0.60130000  0.37400000  0.23930000  1
  O  O58  1  0.89870000  0.87400000  0.76070000  1
  O  O59  1  0.39870000  0.37400000  0.76070000  1
  O  O60  1  0.83440000  0.00000000  0.52950000  1
  O  O61  1  0.33440000  0.50000000  0.52950000  1
  O  O62  1  0.16560000  0.00000000  0.47050000  1
  O  O63  1  0.66560000  0.50000000  0.47050000  1
