# generated using pymatgen
data_Si
_symmetry_space_group_name_H-M   'P 1'
_cell_length_a   22.58500000
_cell_length_b   13.56800000
_cell_length_c   6.97100000
_cell_angle_alpha   90.00000000
_cell_angle_beta   99.01600000
_cell_angle_gamma   90.00000000
_symmetry_Int_Tables_number   1
_chemical_formula_structural   Si
_chemical_formula_sum   Si32
_cell_volume   2109.75348876
_cell_formula_units_Z   32
loop_
 _symmetry_equiv_pos_site_id
 _symmetry_equiv_pos_as_xyz
  1  'x, y, z'
loop_
 _atom_site_type_symbol
 _atom_site_label
 _atom_site_symmetry_multiplicity
 _atom_site_fract_x
 _atom_site_fract_y
 _atom_site_fract_z
 _atom_site_occupancy
  Si  Si0  1  0.83440000  0.20280000  0.19310000  1
  Si  Si1  1  0.33440000  0.70280000  0.19310000  1
  Si  Si2  1  0.16560000  0.20280000  0.80690000  1
  Si  Si3  1  0.66560000  0.70280000  0.80690000  1
  Si  Si4  1  0.16560000  0.79720000  0.80690000  1
  Si  Si5  1  0.66560000  0.29720000  0.80690000  1
  Si  Si6  1  0.83440000  0.79720000  0.19310000  1
  Si  Si7  1  0.33440000  0.29720000  0.19310000  1
  Si  Si8  1  0.93110000  0.88640000  0.98220000  1
  Si  Si9  1  0.43110000  0.38640000  0.98220000  1
  Si  Si10  1  0.06890000  0.88640000  0.01780000  1
  Si  Si11  1  0.56890000  0.38640000  0.01780000  1
  Si  Si12  1  0.06890000  0.11360000  0.01780000  1
  Si  Si13  1  0.56890000  0.61360000  0.01780000  1
  Si  Si14  1  0.93110000  0.11360000  0.98220000  1
  Si  Si15  1  0.43110000  0.61360000  0.98220000  1
  Si  Si16  1  0.74280000  0.88700000  0.87480000  1
  Si  Si17  1  0.24280000  0.38700000  0.87480000  1
  Si  Si18  1  0.25720000  0.88700000  0.12520000  1
  Si  Si19  1  0.75720000  0.38700000  0.12520000  1
  Si  Si20  1  0.25720000  0.11300000  0.12520000  1
  Si  Si21  1  0.75720000  0.61300000  0.12520000  1
  Si  Si22  1  0.74280000  0.11300000  0.87480000  1
  Si  Si23  1  0.24280000  0.61300000  0.87480000  1
  Si  Si24  1  0.83880000  0.11240000  0.60460000  1
  Si  Si25  1  0.33880000  0.61240000  0.60460000  1
  Si  Si26  1  0.16120000  0.11240000  0.39540000  1
  Si  Si27  1  0.66120000  0.61240000  0.39540000  1
  Si  Si28  1  0.16120000  0.88760000  0.39540000  1
  Si  Si29  1  0.66120000  0.38760000  0.39540000  1
  Si  Si30  1  0.83880000  0.88760000  0.60460000  1
  Si  Si31  1  0.33880000  0.38760000  0.60460000  1
