# generated using pymatgen
data_O2
_symmetry_space_group_name_H-M   'P 1'
_cell_length_a   6.76000000
_cell_length_b   17.09300000
_cell_length_c   7.60300000
_cell_angle_alpha   90.00000000
_cell_angle_beta   95.82700000
_cell_angle_gamma   90.00000000
_symmetry_Int_Tables_number   1
_chemical_formula_structural   O2
_chemical_formula_sum   O32
_cell_volume   873.97729823
_cell_formula_units_Z   16
loop_
 _symmetry_equiv_pos_site_id
 _symmetry_equiv_pos_as_xyz
  1  'x, y, z'
loop_
 _atom_site_type_symbol
 _atom_site_label
 _atom_site_symmetry_multiplicity
 _atom_site_fract_x
 _atom_site_fract_y
 _atom_site_fract_z
 _atom_site_occupancy
  O  O0  1  0.38070000  0.10110000  0.03030000  1
  O  O1  1  0.61930000  0.60110000  0.96970000  1
  O  O2  1  0.61930000  0.89890000  0.96970000  1
  O  O3  1  0.38070000  0.39890000  0.03030000  1
  O  O4  1  0.09810000  0.09510000  0.76600000  1
  O  O5  1  0.90190000  0.59510000  0.23400000  1
  O  O6  1  0.90190000  0.90490000  0.23400000  1
  O  O7  1  0.09810000  0.40490000  0.76600000  1
  O  O8  1  0.40510000  0.00030000  0.77230000  1
  O  O9  1  0.59490000  0.50030000  0.22770000  1
  O  O10  1  0.59490000  0.99970000  0.22770000  1
  O  O11  1  0.40510000  0.49970000  0.77230000  1
  O  O12  1  0.45060000  0.15050000  0.71480000  1
  O  O13  1  0.54940000  0.65050000  0.28520000  1
  O  O14  1  0.54940000  0.84950000  0.28520000  1
  O  O15  1  0.45060000  0.34950000  0.71480000  1
  O  O16  1  0.20590000  0.00020000  0.22480000  1
  O  O17  1  0.79410000  0.50020000  0.77520000  1
  O  O18  1  0.79410000  0.99980000  0.77520000  1
  O  O19  1  0.20590000  0.49980000  0.22480000  1
  O  O20  1  0.41690000  0.11550000  0.37650000  1
  O  O21  1  0.58310000  0.61550000  0.62350000  1
  O  O22  1  0.58310000  0.88450000  0.62350000  1
  O  O23  1  0.41690000  0.38450000  0.37650000  1
  O  O24  1  0.77000000  0.11940000  0.55670000  1
  O  O25  1  0.23000000  0.61940000  0.44330000  1
  O  O26  1  0.23000000  0.88060000  0.44330000  1
  O  O27  1  0.77000000  0.38060000  0.55670000  1
  O  O28  1  0.57300000  0.25000000  0.48480000  1
  O  O29  1  0.42700000  0.75000000  0.51520000  1
  O  O30  1  0.00000000  0.00000000  0.50000000  1
  O  O31  1  0.00000000  0.50000000  0.50000000  1
