# generated using pymatgen
data_Si
_symmetry_space_group_name_H-M   'P 1'
_cell_length_a   6.76000000
_cell_length_b   17.09300000
_cell_length_c   7.60300000
_cell_angle_alpha   90.00000000
_cell_angle_beta   95.82700000
_cell_angle_gamma   90.00000000
_symmetry_Int_Tables_number   1
_chemical_formula_structural   Si
_chemical_formula_sum   Si16
_cell_volume   873.97729823
_cell_formula_units_Z   16
loop_
 _symmetry_equiv_pos_site_id
 _symmetry_equiv_pos_as_xyz
  1  'x, y, z'
loop_
 _atom_site_type_symbol
 _atom_site_label
 _atom_site_symmetry_multiplicity
 _atom_site_fract_x
 _atom_site_fract_y
 _atom_site_fract_z
 _atom_site_occupancy
  Si  Si0  1  0.33360000  0.08680000  0.82090000  1
  Si  Si1  1  0.66640000  0.58680000  0.17910000  1
  Si  Si2  1  0.66640000  0.91320000  0.17910000  1
  Si  Si3  1  0.33360000  0.41320000  0.82090000  1
  Si  Si4  1  0.39970000  0.05420000  0.21500000  1
  Si  Si5  1  0.60030000  0.55420000  0.78500000  1
  Si  Si6  1  0.60030000  0.94580000  0.78500000  1
  Si  Si7  1  0.39970000  0.44580000  0.21500000  1
  Si  Si8  1  0.55270000  0.15890000  0.53330000  1
  Si  Si9  1  0.44730000  0.65890000  0.46670000  1
  Si  Si10  1  0.44730000  0.84110000  0.46670000  1
  Si  Si11  1  0.55270000  0.34110000  0.53330000  1
  Si  Si12  1  0.91550000  0.05350000  0.64930000  1
  Si  Si13  1  0.08450000  0.55350000  0.35070000  1
  Si  Si14  1  0.08450000  0.94650000  0.35070000  1
  Si  Si15  1  0.91550000  0.44650000  0.64930000  1
