# generated using pymatgen
data_SiO4
_symmetry_space_group_name_H-M   'P 1'
_cell_length_a   6.76000000
_cell_length_b   17.09300000
_cell_length_c   7.60300000
_cell_angle_alpha   90.00000000
_cell_angle_beta   95.82700000
_cell_angle_gamma   90.00000000
_symmetry_Int_Tables_number   1
_chemical_formula_structural   SiO4
_chemical_formula_sum   'Si1 O4'
_cell_volume   873.97729823
_cell_formula_units_Z   1
loop_
 _symmetry_equiv_pos_site_id
 _symmetry_equiv_pos_as_xyz
  1  'x, y, z'
loop_
 _atom_site_type_symbol
 _atom_site_label
 _atom_site_symmetry_multiplicity
 _atom_site_fract_x
 _atom_site_fract_y
 _atom_site_fract_z
 _atom_site_occupancy
  Si  Si0  1  0.66640000  0.58680000  0.17910000  1
  O  O1  1  0.61930000  0.60110000  -0.03030000  1
  O  O2  1  0.90190000  0.59510000  0.23400000  1
  O  O3  1  0.59490000  0.50030000  0.22770000  1
  O  O4  1  0.54940000  0.65050000  0.28520000  1
