# generated using pymatgen
data_O2
_symmetry_space_group_name_H-M   'P 1'
_cell_length_a   11.45700000
_cell_length_b   5.25500000
_cell_length_c   13.99400000
_cell_angle_alpha   90.00000000
_cell_angle_beta   100.96000000
_cell_angle_gamma   90.00000000
_symmetry_Int_Tables_number   1
_chemical_formula_structural   O2
_chemical_formula_sum   O28
_cell_volume   827.16262879
_cell_formula_units_Z   14
loop_
 _symmetry_equiv_pos_site_id
 _symmetry_equiv_pos_as_xyz
  1  'x, y, z'
loop_
 _atom_site_type_symbol
 _atom_site_label
 _atom_site_symmetry_multiplicity
 _atom_site_fract_x
 _atom_site_fract_y
 _atom_site_fract_z
 _atom_site_occupancy
  O  O0  1  0.28470000  0.25000000  0.30400000  1
  O  O1  1  0.71530000  0.75000000  0.69600000  1
  O  O2  1  0.30560000  0.50000000  0.14550000  1
  O  O3  1  0.69440000  0.00000000  0.85450000  1
  O  O4  1  0.69440000  0.50000000  0.85450000  1
  O  O5  1  0.30560000  0.00000000  0.14550000  1
  O  O6  1  0.10870000  0.25000000  0.15360000  1
  O  O7  1  0.89130000  0.75000000  0.84640000  1
  O  O8  1  0.36740000  0.25000000  0.49400000  1
  O  O9  1  0.63260000  0.75000000  0.50600000  1
  O  O10  1  0.47920000  0.00000000  0.37570000  1
  O  O11  1  0.52080000  0.50000000  0.62430000  1
  O  O12  1  0.52080000  0.00000000  0.62430000  1
  O  O13  1  0.47920000  0.50000000  0.37570000  1
  O  O14  1  0.34750000  0.25000000  0.67940000  1
  O  O15  1  0.65250000  0.75000000  0.32060000  1
  O  O16  1  0.65640000  0.25000000  0.00810000  1
  O  O17  1  0.34360000  0.75000000  0.99190000  1
  O  O18  1  0.49400000  0.25000000  0.84850000  1
  O  O19  1  0.50600000  0.75000000  0.15150000  1
  O  O20  1  0.29150000  0.50010000  0.82650000  1
  O  O21  1  0.70850000  0.00010000  0.17350000  1
  O  O22  1  0.70850000  0.49990000  0.17350000  1
  O  O23  1  0.29150000  0.99990000  0.82650000  1
  O  O24  1  0.87570000  0.25000000  0.10900000  1
  O  O25  1  0.12430000  0.75000000  0.89100000  1
  O  O26  1  0.00000000  0.00000000  0.00000000  1
  O  O27  1  0.00000000  0.50000000  0.00000000  1
