# generated using pymatgen
data_O2
_symmetry_space_group_name_H-M   'P 1'
_cell_length_a   13.63400000
_cell_length_b   13.63400000
_cell_length_c   7.62700000
_cell_angle_alpha   90.00000000
_cell_angle_beta   90.00000000
_cell_angle_gamma   90.00000000
_symmetry_Int_Tables_number   1
_chemical_formula_structural   O2
_chemical_formula_sum   O48
_cell_volume   1417.75218641
_cell_formula_units_Z   24
loop_
 _symmetry_equiv_pos_site_id
 _symmetry_equiv_pos_as_xyz
  1  'x, y, z'
loop_
 _atom_site_type_symbol
 _atom_site_label
 _atom_site_symmetry_multiplicity
 _atom_site_fract_x
 _atom_site_fract_y
 _atom_site_fract_z
 _atom_site_occupancy
  O  O0  1  0.50040000  0.75000000  0.86990000  1
  O  O1  1  0.75000000  0.50040000  0.86990000  1
  O  O2  1  0.99960000  0.75000000  0.86990000  1
  O  O3  1  0.75000000  0.99960000  0.86990000  1
  O  O4  1  0.49960000  0.25000000  0.13010000  1
  O  O5  1  0.25000000  0.49960000  0.13010000  1
  O  O6  1  0.00040000  0.25000000  0.13010000  1
  O  O7  1  0.25000000  0.00040000  0.13010000  1
  O  O8  1  0.43300000  0.88890000  0.66300000  1
  O  O9  1  0.61110000  0.43300000  0.66300000  1
  O  O10  1  0.06700000  0.61110000  0.66300000  1
  O  O11  1  0.88890000  0.06700000  0.66300000  1
  O  O12  1  0.06700000  0.88890000  0.66300000  1
  O  O13  1  0.88890000  0.43300000  0.66300000  1
  O  O14  1  0.43300000  0.61110000  0.66300000  1
  O  O15  1  0.61110000  0.06700000  0.66300000  1
  O  O16  1  0.56700000  0.11110000  0.33700000  1
  O  O17  1  0.38890000  0.56700000  0.33700000  1
  O  O18  1  0.93300000  0.38890000  0.33700000  1
  O  O19  1  0.11110000  0.93300000  0.33700000  1
  O  O20  1  0.93300000  0.11110000  0.33700000  1
  O  O21  1  0.11110000  0.56700000  0.33700000  1
  O  O22  1  0.56700000  0.38890000  0.33700000  1
  O  O23  1  0.38890000  0.93300000  0.33700000  1
  O  O24  1  0.39220000  0.89220000  0.00000000  1
  O  O25  1  0.60780000  0.39220000  0.00000000  1
  O  O26  1  0.10780000  0.60780000  0.00000000  1
  O  O27  1  0.89220000  0.10780000  0.00000000  1
  O  O28  1  0.10780000  0.89220000  0.00000000  1
  O  O29  1  0.89220000  0.39220000  0.00000000  1
  O  O30  1  0.39220000  0.60780000  0.00000000  1
  O  O31  1  0.60780000  0.10780000  0.00000000  1
  O  O32  1  0.57160000  0.92840000  0.89210000  1
  O  O33  1  0.57160000  0.57160000  0.89210000  1
  O  O34  1  0.92840000  0.57160000  0.89210000  1
  O  O35  1  0.92840000  0.92840000  0.89210000  1
  O  O36  1  0.42840000  0.07160000  0.10790000  1
  O  O37  1  0.42840000  0.42840000  0.10790000  1
  O  O38  1  0.07160000  0.42840000  0.10790000  1
  O  O39  1  0.07160000  0.07160000  0.10790000  1
  O  O40  1  0.12100000  0.75000000  0.44420000  1
  O  O41  1  0.75000000  0.12100000  0.44420000  1
  O  O42  1  0.37900000  0.75000000  0.44420000  1
  O  O43  1  0.75000000  0.37900000  0.44420000  1
  O  O44  1  0.87900000  0.25000000  0.55580000  1
  O  O45  1  0.25000000  0.87900000  0.55580000  1
  O  O46  1  0.62100000  0.25000000  0.55580000  1
  O  O47  1  0.25000000  0.62100000  0.55580000  1
