# generated using pymatgen
data_SiO4
_symmetry_space_group_name_H-M   'P 1'
_cell_length_a   9.89000000
_cell_length_b   14.06400000
_cell_length_c   14.04600000
_cell_angle_alpha   90.00000000
_cell_angle_beta   90.00000000
_cell_angle_gamma   90.00000000
_symmetry_Int_Tables_number   1
_chemical_formula_structural   SiO4
_chemical_formula_sum   'Si1 O4'
_cell_volume   1953.69971616
_cell_formula_units_Z   1
loop_
 _symmetry_equiv_pos_site_id
 _symmetry_equiv_pos_as_xyz
  1  'x, y, z'
loop_
 _atom_site_type_symbol
 _atom_site_label
 _atom_site_symmetry_multiplicity
 _atom_site_fract_x
 _atom_site_fract_y
 _atom_site_fract_z
 _atom_site_occupancy
  Si  Si0  1  0.15700000  0.89160000  0.01840000  1
  O  O1  1  0.00000000  0.88850000  0.04840000  1
  O  O2  1  0.17930000  0.83060000  -0.07730000  1
  O  O3  1  0.20210000  1.00000000  0.00000000  1
  O  O4  1  0.24730000  0.84730000  0.10290000  1
