# generated using pymatgen
data_Si
_symmetry_space_group_name_H-M   'P 1'
_cell_length_a   9.89000000
_cell_length_b   14.06400000
_cell_length_c   14.04600000
_cell_angle_alpha   90.00000000
_cell_angle_beta   90.00000000
_cell_angle_gamma   90.00000000
_symmetry_Int_Tables_number   1
_chemical_formula_structural   Si
_chemical_formula_sum   Si32
_cell_volume   1953.69971616
_cell_formula_units_Z   32
loop_
 _symmetry_equiv_pos_site_id
 _symmetry_equiv_pos_as_xyz
  1  'x, y, z'
loop_
 _atom_site_type_symbol
 _atom_site_label
 _atom_site_symmetry_multiplicity
 _atom_site_fract_x
 _atom_site_fract_y
 _atom_site_fract_z
 _atom_site_occupancy
  Si  Si0  1  0.15700000  0.10840000  0.98160000  1
  Si  Si1  1  0.65700000  0.60840000  0.98160000  1
  Si  Si2  1  0.84300000  0.10840000  0.98160000  1
  Si  Si3  1  0.34300000  0.60840000  0.98160000  1
  Si  Si4  1  0.15700000  0.89160000  0.48160000  1
  Si  Si5  1  0.65700000  0.39160000  0.48160000  1
  Si  Si6  1  0.84300000  0.89160000  0.48160000  1
  Si  Si7  1  0.34300000  0.39160000  0.48160000  1
  Si  Si8  1  0.84300000  0.89160000  0.01840000  1
  Si  Si9  1  0.34300000  0.39160000  0.01840000  1
  Si  Si10  1  0.15700000  0.89160000  0.01840000  1
  Si  Si11  1  0.65700000  0.39160000  0.01840000  1
  Si  Si12  1  0.84300000  0.10840000  0.51840000  1
  Si  Si13  1  0.34300000  0.60840000  0.51840000  1
  Si  Si14  1  0.15700000  0.10840000  0.51840000  1
  Si  Si15  1  0.65700000  0.60840000  0.51840000  1
  Si  Si16  1  0.15530000  0.26350000  0.14020000  1
  Si  Si17  1  0.65530000  0.76350000  0.14020000  1
  Si  Si18  1  0.84470000  0.26350000  0.14020000  1
  Si  Si19  1  0.34470000  0.76350000  0.14020000  1
  Si  Si20  1  0.15530000  0.73650000  0.64020000  1
  Si  Si21  1  0.65530000  0.23650000  0.64020000  1
  Si  Si22  1  0.84470000  0.73650000  0.64020000  1
  Si  Si23  1  0.34470000  0.23650000  0.64020000  1
  Si  Si24  1  0.84470000  0.73650000  0.85980000  1
  Si  Si25  1  0.34470000  0.23650000  0.85980000  1
  Si  Si26  1  0.15530000  0.73650000  0.85980000  1
  Si  Si27  1  0.65530000  0.23650000  0.85980000  1
  Si  Si28  1  0.84470000  0.26350000  0.35980000  1
  Si  Si29  1  0.34470000  0.76350000  0.35980000  1
  Si  Si30  1  0.15530000  0.26350000  0.35980000  1
  Si  Si31  1  0.65530000  0.76350000  0.35980000  1
