# generated using pymatgen
data_O2
_symmetry_space_group_name_H-M   'P 1'
_cell_length_a   9.89000000
_cell_length_b   14.06400000
_cell_length_c   14.04600000
_cell_angle_alpha   90.00000000
_cell_angle_beta   90.00000000
_cell_angle_gamma   90.00000000
_symmetry_Int_Tables_number   1
_chemical_formula_structural   O2
_chemical_formula_sum   O64
_cell_volume   1953.69971616
_cell_formula_units_Z   32
loop_
 _symmetry_equiv_pos_site_id
 _symmetry_equiv_pos_as_xyz
  1  'x, y, z'
loop_
 _atom_site_type_symbol
 _atom_site_label
 _atom_site_symmetry_multiplicity
 _atom_site_fract_x
 _atom_site_fract_y
 _atom_site_fract_z
 _atom_site_occupancy
  O  O0  1  0.00000000  0.11150000  0.95160000  1
  O  O1  1  0.50000000  0.61150000  0.95160000  1
  O  O2  1  0.00000000  0.88850000  0.45160000  1
  O  O3  1  0.50000000  0.38850000  0.45160000  1
  O  O4  1  0.00000000  0.88850000  0.04840000  1
  O  O5  1  0.50000000  0.38850000  0.04840000  1
  O  O6  1  0.00000000  0.11150000  0.54840000  1
  O  O7  1  0.50000000  0.61150000  0.54840000  1
  O  O8  1  0.17930000  0.16940000  0.07730000  1
  O  O9  1  0.67930000  0.66940000  0.07730000  1
  O  O10  1  0.82070000  0.16940000  0.07730000  1
  O  O11  1  0.32070000  0.66940000  0.07730000  1
  O  O12  1  0.17930000  0.83060000  0.57730000  1
  O  O13  1  0.67930000  0.33060000  0.57730000  1
  O  O14  1  0.82070000  0.83060000  0.57730000  1
  O  O15  1  0.32070000  0.33060000  0.57730000  1
  O  O16  1  0.82070000  0.83060000  0.92270000  1
  O  O17  1  0.32070000  0.33060000  0.92270000  1
  O  O18  1  0.17930000  0.83060000  0.92270000  1
  O  O19  1  0.67930000  0.33060000  0.92270000  1
  O  O20  1  0.82070000  0.16940000  0.42270000  1
  O  O21  1  0.32070000  0.66940000  0.42270000  1
  O  O22  1  0.17930000  0.16940000  0.42270000  1
  O  O23  1  0.67930000  0.66940000  0.42270000  1
  O  O24  1  0.20210000  0.00000000  0.00000000  1
  O  O25  1  0.70210000  0.50000000  0.00000000  1
  O  O26  1  0.79790000  0.00000000  0.00000000  1
  O  O27  1  0.29790000  0.50000000  0.00000000  1
  O  O28  1  0.20210000  0.00000000  0.50000000  1
  O  O29  1  0.70210000  0.50000000  0.50000000  1
  O  O30  1  0.79790000  0.00000000  0.50000000  1
  O  O31  1  0.29790000  0.50000000  0.50000000  1
  O  O32  1  0.24730000  0.15270000  0.89710000  1
  O  O33  1  0.74730000  0.65270000  0.89710000  1
  O  O34  1  0.75270000  0.15270000  0.89710000  1
  O  O35  1  0.25270000  0.65270000  0.89710000  1
  O  O36  1  0.24730000  0.84730000  0.39710000  1
  O  O37  1  0.74730000  0.34730000  0.39710000  1
  O  O38  1  0.75270000  0.84730000  0.39710000  1
  O  O39  1  0.25270000  0.34730000  0.39710000  1
  O  O40  1  0.75270000  0.84730000  0.10290000  1
  O  O41  1  0.25270000  0.34730000  0.10290000  1
  O  O42  1  0.24730000  0.84730000  0.10290000  1
  O  O43  1  0.74730000  0.34730000  0.10290000  1
  O  O44  1  0.75270000  0.15270000  0.60290000  1
  O  O45  1  0.25270000  0.65270000  0.60290000  1
  O  O46  1  0.24730000  0.15270000  0.60290000  1
  O  O47  1  0.74730000  0.65270000  0.60290000  1
  O  O48  1  0.18910000  0.24080000  0.25000000  1
  O  O49  1  0.68910000  0.74080000  0.25000000  1
  O  O50  1  0.81090000  0.24080000  0.25000000  1
  O  O51  1  0.31090000  0.74080000  0.25000000  1
  O  O52  1  0.18910000  0.75920000  0.75000000  1
  O  O53  1  0.68910000  0.25920000  0.75000000  1
  O  O54  1  0.81090000  0.75920000  0.75000000  1
  O  O55  1  0.31090000  0.25920000  0.75000000  1
  O  O56  1  0.00000000  0.29660000  0.13090000  1
  O  O57  1  0.50000000  0.79660000  0.13090000  1
  O  O58  1  0.00000000  0.70340000  0.63090000  1
  O  O59  1  0.50000000  0.20340000  0.63090000  1
  O  O60  1  0.00000000  0.70340000  0.86910000  1
  O  O61  1  0.50000000  0.20340000  0.86910000  1
  O  O62  1  0.00000000  0.29660000  0.36910000  1
  O  O63  1  0.50000000  0.79660000  0.36910000  1
