# generated using pymatgen
data_SiO4
_symmetry_space_group_name_H-M   'P 1'
_cell_length_a   17.19300000
_cell_length_b   17.19300000
_cell_length_c   27.33300000
_cell_angle_alpha   90.00000000
_cell_angle_beta   90.00000000
_cell_angle_gamma   120.00000000
_symmetry_Int_Tables_number   1
_chemical_formula_structural   SiO4
_chemical_formula_sum   'Si1 O4'
_cell_volume   6997.15121313
_cell_formula_units_Z   1
loop_
 _symmetry_equiv_pos_site_id
 _symmetry_equiv_pos_as_xyz
  1  'x, y, z'
loop_
 _atom_site_type_symbol
 _atom_site_label
 _atom_site_symmetry_multiplicity
 _atom_site_fract_x
 _atom_site_fract_y
 _atom_site_fract_z
 _atom_site_occupancy
  Si  Si0  1  0.93680000  0.69430000  0.45640000  1
  O  O1  1  0.99710000  0.71200000  0.40800000  1
  O  O2  1  1.00000000  0.75700000  0.50000000  1
  O  O3  1  0.85910000  0.71810000  0.44530000  1
  O  O4  1  0.89230000  0.59050000  0.47210000  1
