# generated using pymatgen
data_O2
_symmetry_space_group_name_H-M   'P 1'
_cell_length_a   17.19300000
_cell_length_b   17.19300000
_cell_length_c   27.33300000
_cell_angle_alpha   90.00000000
_cell_angle_beta   90.00000000
_cell_angle_gamma   120.00000000
_symmetry_Int_Tables_number   1
_chemical_formula_structural   O2
_chemical_formula_sum   O192
_cell_volume   6997.15121313
_cell_formula_units_Z   96
loop_
 _symmetry_equiv_pos_site_id
 _symmetry_equiv_pos_as_xyz
  1  'x, y, z'
loop_
 _atom_site_type_symbol
 _atom_site_label
 _atom_site_symmetry_multiplicity
 _atom_site_fract_x
 _atom_site_fract_y
 _atom_site_fract_z
 _atom_site_occupancy
  O  O0  1  0.00290000  0.28800000  0.59200000  1
  O  O1  1  0.71200000  0.71490000  0.59200000  1
  O  O2  1  0.28510000  0.99710000  0.59200000  1
  O  O3  1  0.99710000  0.71200000  0.09200000  1
  O  O4  1  0.28800000  0.28510000  0.09200000  1
  O  O5  1  0.71490000  0.00290000  0.09200000  1
  O  O6  1  0.71200000  0.99710000  0.59200000  1
  O  O7  1  0.28510000  0.28800000  0.59200000  1
  O  O8  1  0.00290000  0.71490000  0.59200000  1
  O  O9  1  0.28800000  0.00290000  0.09200000  1
  O  O10  1  0.71490000  0.71200000  0.09200000  1
  O  O11  1  0.99710000  0.28510000  0.09200000  1
  O  O12  1  0.99710000  0.71200000  0.40800000  1
  O  O13  1  0.28800000  0.28510000  0.40800000  1
  O  O14  1  0.71490000  0.00290000  0.40800000  1
  O  O15  1  0.00290000  0.28800000  0.90800000  1
  O  O16  1  0.71200000  0.71490000  0.90800000  1
  O  O17  1  0.28510000  0.99710000  0.90800000  1
  O  O18  1  0.28800000  0.00290000  0.40800000  1
  O  O19  1  0.71490000  0.71200000  0.40800000  1
  O  O20  1  0.99710000  0.28510000  0.40800000  1
  O  O21  1  0.71200000  0.99710000  0.90800000  1
  O  O22  1  0.28510000  0.28800000  0.90800000  1
  O  O23  1  0.00290000  0.71490000  0.90800000  1
  O  O24  1  0.00000000  0.24300000  0.50000000  1
  O  O25  1  0.75700000  0.75700000  0.50000000  1
  O  O26  1  0.24300000  0.00000000  0.50000000  1
  O  O27  1  0.00000000  0.75700000  0.00000000  1
  O  O28  1  0.24300000  0.24300000  0.00000000  1
  O  O29  1  0.75700000  0.00000000  0.00000000  1
  O  O30  1  0.75700000  0.00000000  0.50000000  1
  O  O31  1  0.24300000  0.24300000  0.50000000  1
  O  O32  1  0.00000000  0.75700000  0.50000000  1
  O  O33  1  0.24300000  0.00000000  0.00000000  1
  O  O34  1  0.75700000  0.75700000  0.00000000  1
  O  O35  1  0.00000000  0.24300000  0.00000000  1
  O  O36  1  0.14090000  0.28190000  0.55470000  1
  O  O37  1  0.71810000  0.85900000  0.55470000  1
  O  O38  1  0.14100000  0.85910000  0.55470000  1
  O  O39  1  0.85910000  0.71810000  0.05470000  1
  O  O40  1  0.28190000  0.14100000  0.05470000  1
  O  O41  1  0.85900000  0.14090000  0.05470000  1
  O  O42  1  0.85910000  0.71810000  0.44530000  1
  O  O43  1  0.28190000  0.14100000  0.44530000  1
  O  O44  1  0.85900000  0.14090000  0.44530000  1
  O  O45  1  0.14090000  0.28190000  0.94530000  1
  O  O46  1  0.71810000  0.85900000  0.94530000  1
  O  O47  1  0.14100000  0.85910000  0.94530000  1
  O  O48  1  0.10770000  0.40950000  0.52790000  1
  O  O49  1  0.59050000  0.69820000  0.52790000  1
  O  O50  1  0.30180000  0.89230000  0.52790000  1
  O  O51  1  0.89230000  0.59050000  0.02790000  1
  O  O52  1  0.40950000  0.30180000  0.02790000  1
  O  O53  1  0.69820000  0.10770000  0.02790000  1
  O  O54  1  0.59050000  0.89230000  0.52790000  1
  O  O55  1  0.30180000  0.40950000  0.52790000  1
  O  O56  1  0.10770000  0.69820000  0.52790000  1
  O  O57  1  0.40950000  0.10770000  0.02790000  1
  O  O58  1  0.69820000  0.59050000  0.02790000  1
  O  O59  1  0.89230000  0.30180000  0.02790000  1
  O  O60  1  0.89230000  0.59050000  0.47210000  1
  O  O61  1  0.40950000  0.30180000  0.47210000  1
  O  O62  1  0.69820000  0.10770000  0.47210000  1
  O  O63  1  0.10770000  0.40950000  0.97210000  1
  O  O64  1  0.59050000  0.69820000  0.97210000  1
  O  O65  1  0.30180000  0.89230000  0.97210000  1
  O  O66  1  0.40950000  0.10770000  0.47210000  1
  O  O67  1  0.69820000  0.59050000  0.47210000  1
  O  O68  1  0.89230000  0.30180000  0.47210000  1
  O  O69  1  0.59050000  0.89230000  0.97210000  1
  O  O70  1  0.30180000  0.40950000  0.97210000  1
  O  O71  1  0.10770000  0.69820000  0.97210000  1
  O  O72  1  0.69340000  0.09700000  0.65870000  1
  O  O73  1  0.90300000  0.59640000  0.65870000  1
  O  O74  1  0.40360000  0.30660000  0.65870000  1
  O  O75  1  0.30660000  0.90300000  0.15870000  1
  O  O76  1  0.09700000  0.40360000  0.15870000  1
  O  O77  1  0.59640000  0.69340000  0.15870000  1
  O  O78  1  0.90300000  0.30660000  0.65870000  1
  O  O79  1  0.40360000  0.09700000  0.65870000  1
  O  O80  1  0.69340000  0.59640000  0.65870000  1
  O  O81  1  0.09700000  0.69340000  0.15870000  1
  O  O82  1  0.59640000  0.90300000  0.15870000  1
  O  O83  1  0.30660000  0.40360000  0.15870000  1
  O  O84  1  0.30660000  0.90300000  0.34130000  1
  O  O85  1  0.09700000  0.40360000  0.34130000  1
  O  O86  1  0.59640000  0.69340000  0.34130000  1
  O  O87  1  0.69340000  0.09700000  0.84130000  1
  O  O88  1  0.90300000  0.59640000  0.84130000  1
  O  O89  1  0.40360000  0.30660000  0.84130000  1
  O  O90  1  0.09700000  0.69340000  0.34130000  1
  O  O91  1  0.59640000  0.90300000  0.34130000  1
  O  O92  1  0.30660000  0.40360000  0.34130000  1
  O  O93  1  0.90300000  0.30660000  0.84130000  1
  O  O94  1  0.40360000  0.09700000  0.84130000  1
  O  O95  1  0.69340000  0.59640000  0.84130000  1
  O  O96  1  0.66810000  0.11700000  0.56570000  1
  O  O97  1  0.88300000  0.55110000  0.56570000  1
  O  O98  1  0.44890000  0.33190000  0.56570000  1
  O  O99  1  0.33190000  0.88300000  0.06570000  1
  O  O100  1  0.11700000  0.44890000  0.06570000  1
  O  O101  1  0.55110000  0.66810000  0.06570000  1
  O  O102  1  0.88300000  0.33190000  0.56570000  1
  O  O103  1  0.44890000  0.11700000  0.56570000  1
  O  O104  1  0.66810000  0.55110000  0.56570000  1
  O  O105  1  0.11700000  0.66810000  0.06570000  1
  O  O106  1  0.55110000  0.88300000  0.06570000  1
  O  O107  1  0.33190000  0.44890000  0.06570000  1
  O  O108  1  0.33190000  0.88300000  0.43430000  1
  O  O109  1  0.11700000  0.44890000  0.43430000  1
  O  O110  1  0.55110000  0.66810000  0.43430000  1
  O  O111  1  0.66810000  0.11700000  0.93430000  1
  O  O112  1  0.88300000  0.55110000  0.93430000  1
  O  O113  1  0.44890000  0.33190000  0.93430000  1
  O  O114  1  0.11700000  0.66810000  0.43430000  1
  O  O115  1  0.55110000  0.88300000  0.43430000  1
  O  O116  1  0.33190000  0.44890000  0.43430000  1
  O  O117  1  0.88300000  0.33190000  0.93430000  1
  O  O118  1  0.44890000  0.11700000  0.93430000  1
  O  O119  1  0.66810000  0.55110000  0.93430000  1
  O  O120  1  0.83080000  0.16920000  0.59830000  1
  O  O121  1  0.83080000  0.66160000  0.59830000  1
  O  O122  1  0.33840000  0.16920000  0.59830000  1
  O  O123  1  0.16920000  0.83080000  0.09830000  1
  O  O124  1  0.16920000  0.33840000  0.09830000  1
  O  O125  1  0.66160000  0.83080000  0.09830000  1
  O  O126  1  0.16920000  0.83080000  0.40170000  1
  O  O127  1  0.16920000  0.33840000  0.40170000  1
  O  O128  1  0.66160000  0.83080000  0.40170000  1
  O  O129  1  0.83080000  0.16920000  0.90170000  1
  O  O130  1  0.83080000  0.66160000  0.90170000  1
  O  O131  1  0.33840000  0.16920000  0.90170000  1
  O  O132  1  0.43140000  0.56860000  0.50060000  1
  O  O133  1  0.43140000  0.86280000  0.50060000  1
  O  O134  1  0.13720000  0.56860000  0.50060000  1
  O  O135  1  0.56860000  0.43140000  0.00060000  1
  O  O136  1  0.56860000  0.13720000  0.00060000  1
  O  O137  1  0.86280000  0.43140000  0.00060000  1
  O  O138  1  0.56860000  0.43140000  0.49940000  1
  O  O139  1  0.56860000  0.13720000  0.49940000  1
  O  O140  1  0.86280000  0.43140000  0.49940000  1
  O  O141  1  0.43140000  0.56860000  0.99940000  1
  O  O142  1  0.43140000  0.86280000  0.99940000  1
  O  O143  1  0.13720000  0.56860000  0.99940000  1
  O  O144  1  0.26250000  0.52490000  0.48860000  1
  O  O145  1  0.47510000  0.73760000  0.48860000  1
  O  O146  1  0.26240000  0.73750000  0.48860000  1
  O  O147  1  0.73750000  0.47510000  0.98860000  1
  O  O148  1  0.52490000  0.26240000  0.98860000  1
  O  O149  1  0.73760000  0.26250000  0.98860000  1
  O  O150  1  0.73750000  0.47510000  0.51140000  1
  O  O151  1  0.52490000  0.26240000  0.51140000  1
  O  O152  1  0.73760000  0.26250000  0.51140000  1
  O  O153  1  0.26250000  0.52490000  0.01140000  1
  O  O154  1  0.47510000  0.73760000  0.01140000  1
  O  O155  1  0.26240000  0.73750000  0.01140000  1
  O  O156  1  0.86120000  0.43060000  0.67910000  1
  O  O157  1  0.56940000  0.43060000  0.67910000  1
  O  O158  1  0.56940000  0.13880000  0.67910000  1
  O  O159  1  0.13880000  0.56940000  0.17910000  1
  O  O160  1  0.43060000  0.56940000  0.17910000  1
  O  O161  1  0.43060000  0.86120000  0.17910000  1
  O  O162  1  0.13880000  0.56940000  0.32090000  1
  O  O163  1  0.43060000  0.56940000  0.32090000  1
  O  O164  1  0.43060000  0.86120000  0.32090000  1
  O  O165  1  0.86120000  0.43060000  0.82090000  1
  O  O166  1  0.56940000  0.43060000  0.82090000  1
  O  O167  1  0.56940000  0.13880000  0.82090000  1
  O  O168  1  0.87590000  0.33540000  0.75000000  1
  O  O169  1  0.66460000  0.54050000  0.75000000  1
  O  O170  1  0.45950000  0.12410000  0.75000000  1
  O  O171  1  0.12410000  0.66460000  0.25000000  1
  O  O172  1  0.33540000  0.45950000  0.25000000  1
  O  O173  1  0.54050000  0.87590000  0.25000000  1
  O  O174  1  0.66460000  0.12410000  0.75000000  1
  O  O175  1  0.45950000  0.33540000  0.75000000  1
  O  O176  1  0.87590000  0.54050000  0.75000000  1
  O  O177  1  0.33540000  0.87590000  0.25000000  1
  O  O178  1  0.54050000  0.66460000  0.25000000  1
  O  O179  1  0.12410000  0.45950000  0.25000000  1
  O  O180  1  0.74020000  0.25980000  0.68870000  1
  O  O181  1  0.74020000  0.48040000  0.68870000  1
  O  O182  1  0.51960000  0.25980000  0.68870000  1
  O  O183  1  0.25980000  0.74020000  0.18870000  1
  O  O184  1  0.25980000  0.51960000  0.18870000  1
  O  O185  1  0.48040000  0.74020000  0.18870000  1
  O  O186  1  0.25980000  0.74020000  0.31130000  1
  O  O187  1  0.25980000  0.51960000  0.31130000  1
  O  O188  1  0.48040000  0.74020000  0.31130000  1
  O  O189  1  0.74020000  0.25980000  0.81130000  1
  O  O190  1  0.74020000  0.48040000  0.81130000  1
  O  O191  1  0.51960000  0.25980000  0.81130000  1
