# generated using pymatgen
data_SiO4
_symmetry_space_group_name_H-M   'P 1'
_cell_length_a   8.71720000
_cell_length_b   6.92310000
_cell_length_c   14.94600000
_cell_angle_alpha   90.00000000
_cell_angle_beta   96.99200000
_cell_angle_gamma   90.00000000
_symmetry_Int_Tables_number   1
_chemical_formula_structural   SiO4
_chemical_formula_sum   'Si1 O4'
_cell_volume   895.28383681
_cell_formula_units_Z   1
loop_
 _symmetry_equiv_pos_site_id
 _symmetry_equiv_pos_as_xyz
  1  'x, y, z'
loop_
 _atom_site_type_symbol
 _atom_site_label
 _atom_site_symmetry_multiplicity
 _atom_site_fract_x
 _atom_site_fract_y
 _atom_site_fract_z
 _atom_site_occupancy
  Si  Si0  1  0.81800000  0.12160000  0.24780000  1
  O  O1  1  0.72400000  0.29940000  0.19800000  1
  O  O2  1  0.77550000  0.10560000  0.34940000  1
  O  O3  1  0.77170000  -0.07430000  0.19290000  1
  O  O4  1  1.00000000  0.16210000  0.25000000  1
