# generated using pymatgen
data_Si
_symmetry_space_group_name_H-M   'P 1'
_cell_length_a   8.71720000
_cell_length_b   6.92310000
_cell_length_c   14.94600000
_cell_angle_alpha   90.00000000
_cell_angle_beta   96.99200000
_cell_angle_gamma   90.00000000
_symmetry_Int_Tables_number   1
_chemical_formula_structural   Si
_chemical_formula_sum   Si16
_cell_volume   895.28383681
_cell_formula_units_Z   16
loop_
 _symmetry_equiv_pos_site_id
 _symmetry_equiv_pos_as_xyz
  1  'x, y, z'
loop_
 _atom_site_type_symbol
 _atom_site_label
 _atom_site_symmetry_multiplicity
 _atom_site_fract_x
 _atom_site_fract_y
 _atom_site_fract_z
 _atom_site_occupancy
  Si  Si0  1  0.81800000  0.12160000  0.24780000  1
  Si  Si1  1  0.18200000  0.12160000  0.25220000  1
  Si  Si2  1  0.18200000  0.87840000  0.75220000  1
  Si  Si3  1  0.81800000  0.87840000  0.74780000  1
  Si  Si4  1  0.63680000  0.88910000  0.91130000  1
  Si  Si5  1  0.36320000  0.88910000  0.58870000  1
  Si  Si6  1  0.36320000  0.11090000  0.08870000  1
  Si  Si7  1  0.63680000  0.11090000  0.41130000  1
  Si  Si8  1  0.65060000  0.14980000  0.61040000  1
  Si  Si9  1  0.34940000  0.14980000  0.88960000  1
  Si  Si10  1  0.34940000  0.85020000  0.38960000  1
  Si  Si11  1  0.65060000  0.85020000  0.11040000  1
  Si  Si12  1  0.42110000  0.43570000  0.33550000  1
  Si  Si13  1  0.57890000  0.43570000  0.16450000  1
  Si  Si14  1  0.57890000  0.56430000  0.66450000  1
  Si  Si15  1  0.42110000  0.56430000  0.83550000  1
