# generated using pymatgen
data_O2
_symmetry_space_group_name_H-M   'P 1'
_cell_length_a   8.71720000
_cell_length_b   6.92310000
_cell_length_c   14.94600000
_cell_angle_alpha   90.00000000
_cell_angle_beta   96.99200000
_cell_angle_gamma   90.00000000
_symmetry_Int_Tables_number   1
_chemical_formula_structural   O2
_chemical_formula_sum   O32
_cell_volume   895.28383681
_cell_formula_units_Z   16
loop_
 _symmetry_equiv_pos_site_id
 _symmetry_equiv_pos_as_xyz
  1  'x, y, z'
loop_
 _atom_site_type_symbol
 _atom_site_label
 _atom_site_symmetry_multiplicity
 _atom_site_fract_x
 _atom_site_fract_y
 _atom_site_fract_z
 _atom_site_occupancy
  O  O0  1  0.72400000  0.29940000  0.19800000  1
  O  O1  1  0.27600000  0.29940000  0.30200000  1
  O  O2  1  0.27600000  0.70060000  0.80200000  1
  O  O3  1  0.72400000  0.70060000  0.69800000  1
  O  O4  1  0.77550000  0.10560000  0.34940000  1
  O  O5  1  0.22450000  0.10560000  0.15060000  1
  O  O6  1  0.22450000  0.89440000  0.65060000  1
  O  O7  1  0.77550000  0.89440000  0.84940000  1
  O  O8  1  0.77170000  0.92570000  0.19290000  1
  O  O9  1  0.22830000  0.92570000  0.30710000  1
  O  O10  1  0.22830000  0.07430000  0.80710000  1
  O  O11  1  0.77170000  0.07430000  0.69290000  1
  O  O12  1  0.00000000  0.16210000  0.25000000  1
  O  O13  1  0.00000000  0.83790000  0.75000000  1
  O  O14  1  0.70380000  0.91780000  0.01580000  1
  O  O15  1  0.29620000  0.91780000  0.48420000  1
  O  O16  1  0.29620000  0.08220000  0.98420000  1
  O  O17  1  0.70380000  0.08220000  0.51580000  1
  O  O18  1  0.51740000  0.06070000  0.88030000  1
  O  O19  1  0.48260000  0.06070000  0.61970000  1
  O  O20  1  0.48260000  0.93930000  0.11970000  1
  O  O21  1  0.51740000  0.93930000  0.38030000  1
  O  O22  1  0.54750000  0.68520000  0.90020000  1
  O  O23  1  0.45250000  0.68520000  0.59980000  1
  O  O24  1  0.45250000  0.31480000  0.09980000  1
  O  O25  1  0.54750000  0.31480000  0.40020000  1
  O  O26  1  0.63890000  0.38190000  0.61170000  1
  O  O27  1  0.36110000  0.38190000  0.88830000  1
  O  O28  1  0.36110000  0.61810000  0.38830000  1
  O  O29  1  0.63890000  0.61810000  0.11170000  1
  O  O30  1  0.50000000  0.51140000  0.25000000  1
  O  O31  1  0.50000000  0.48860000  0.75000000  1
