# generated using pymatgen
data_O2
_symmetry_space_group_name_H-M   'P 1'
_cell_length_a   14.84400000
_cell_length_b   8.59400000
_cell_length_c   9.78400000
_cell_angle_alpha   90.00000000
_cell_angle_beta   90.00000000
_cell_angle_gamma   90.00000000
_symmetry_Int_Tables_number   1
_chemical_formula_structural   O2
_chemical_formula_sum   O52
_cell_volume   1248.13838342
_cell_formula_units_Z   26
loop_
 _symmetry_equiv_pos_site_id
 _symmetry_equiv_pos_as_xyz
  1  'x, y, z'
loop_
 _atom_site_type_symbol
 _atom_site_label
 _atom_site_symmetry_multiplicity
 _atom_site_fract_x
 _atom_site_fract_y
 _atom_site_fract_z
 _atom_site_occupancy
  O  O0  1  0.05550000  0.95950000  0.09900000  1
  O  O1  1  0.44450000  0.45950000  0.59900000  1
  O  O2  1  0.05550000  0.54050000  0.09900000  1
  O  O3  1  0.44450000  0.04050000  0.59900000  1
  O  O4  1  0.94450000  0.04050000  0.90100000  1
  O  O5  1  0.55550000  0.54050000  0.40100000  1
  O  O6  1  0.94450000  0.45950000  0.90100000  1
  O  O7  1  0.55550000  0.95950000  0.40100000  1
  O  O8  1  0.03930000  0.25000000  0.17950000  1
  O  O9  1  0.46070000  0.75000000  0.67950000  1
  O  O10  1  0.96070000  0.75000000  0.82050000  1
  O  O11  1  0.53930000  0.25000000  0.32050000  1
  O  O12  1  0.94060000  0.03160000  0.29350000  1
  O  O13  1  0.55940000  0.53160000  0.79350000  1
  O  O14  1  0.94060000  0.46840000  0.29350000  1
  O  O15  1  0.55940000  0.96840000  0.79350000  1
  O  O16  1  0.05940000  0.96840000  0.70650000  1
  O  O17  1  0.44060000  0.46840000  0.20650000  1
  O  O18  1  0.05940000  0.53160000  0.70650000  1
  O  O19  1  0.44060000  0.03160000  0.20650000  1
  O  O20  1  0.11470000  0.04330000  0.34130000  1
  O  O21  1  0.38530000  0.54330000  0.84130000  1
  O  O22  1  0.11470000  0.45670000  0.34130000  1
  O  O23  1  0.38530000  0.95670000  0.84130000  1
  O  O24  1  0.88530000  0.95670000  0.65870000  1
  O  O25  1  0.61470000  0.45670000  0.15870000  1
  O  O26  1  0.88530000  0.54330000  0.65870000  1
  O  O27  1  0.61470000  0.04330000  0.15870000  1
  O  O28  1  0.21560000  0.45990000  0.81650000  1
  O  O29  1  0.28440000  0.95990000  0.31650000  1
  O  O30  1  0.21560000  0.04010000  0.81650000  1
  O  O31  1  0.28440000  0.54010000  0.31650000  1
  O  O32  1  0.78440000  0.54010000  0.18350000  1
  O  O33  1  0.71560000  0.04010000  0.68350000  1
  O  O34  1  0.78440000  0.95990000  0.18350000  1
  O  O35  1  0.71560000  0.45990000  0.68350000  1
  O  O36  1  0.17990000  0.75000000  0.75130000  1
  O  O37  1  0.32010000  0.25000000  0.25130000  1
  O  O38  1  0.82010000  0.25000000  0.24870000  1
  O  O39  1  0.67990000  0.75000000  0.74870000  1
  O  O40  1  0.20680000  0.54240000  0.55810000  1
  O  O41  1  0.29320000  0.04240000  0.05810000  1
  O  O42  1  0.20680000  0.95760000  0.55810000  1
  O  O43  1  0.29320000  0.45760000  0.05810000  1
  O  O44  1  0.79320000  0.45760000  0.44190000  1
  O  O45  1  0.70680000  0.95760000  0.94190000  1
  O  O46  1  0.79320000  0.04240000  0.44190000  1
  O  O47  1  0.70680000  0.54240000  0.94190000  1
  O  O48  1  0.16130000  0.75000000  0.37340000  1
  O  O49  1  0.33870000  0.25000000  0.87340000  1
  O  O50  1  0.83870000  0.25000000  0.62660000  1
  O  O51  1  0.66130000  0.75000000  0.12660000  1
