# generated using pymatgen
data_Si
_symmetry_space_group_name_H-M   'P 1'
_cell_length_a   14.84400000
_cell_length_b   8.59400000
_cell_length_c   9.78400000
_cell_angle_alpha   90.00000000
_cell_angle_beta   90.00000000
_cell_angle_gamma   90.00000000
_symmetry_Int_Tables_number   1
_chemical_formula_structural   Si
_chemical_formula_sum   Si24
_cell_volume   1248.13838342
_cell_formula_units_Z   24
loop_
 _symmetry_equiv_pos_site_id
 _symmetry_equiv_pos_as_xyz
  1  'x, y, z'
loop_
 _atom_site_type_symbol
 _atom_site_label
 _atom_site_symmetry_multiplicity
 _atom_site_fract_x
 _atom_site_fract_y
 _atom_site_fract_z
 _atom_site_occupancy
  Si  Si0  1  0.03750000  0.07110000  0.22830000  1
  Si  Si1  1  0.46250000  0.57110000  0.72830000  1
  Si  Si2  1  0.03750000  0.42890000  0.22830000  1
  Si  Si3  1  0.46250000  0.92890000  0.72830000  1
  Si  Si4  1  0.96250000  0.92890000  0.77170000  1
  Si  Si5  1  0.53750000  0.42890000  0.27170000  1
  Si  Si6  1  0.96250000  0.57110000  0.77170000  1
  Si  Si7  1  0.53750000  0.07110000  0.27170000  1
  Si  Si8  1  0.16540000  0.57100000  0.70810000  1
  Si  Si9  1  0.33460000  0.07100000  0.20810000  1
  Si  Si10  1  0.16540000  0.92900000  0.70810000  1
  Si  Si11  1  0.33460000  0.42900000  0.20810000  1
  Si  Si12  1  0.83460000  0.42900000  0.29190000  1
  Si  Si13  1  0.66540000  0.92900000  0.79190000  1
  Si  Si14  1  0.83460000  0.07100000  0.29190000  1
  Si  Si15  1  0.66540000  0.57100000  0.79190000  1
  Si  Si16  1  0.19180000  0.57220000  0.39720000  1
  Si  Si17  1  0.30820000  0.07220000  0.89720000  1
  Si  Si18  1  0.19180000  0.92780000  0.39720000  1
  Si  Si19  1  0.30820000  0.42780000  0.89720000  1
  Si  Si20  1  0.80820000  0.42780000  0.60280000  1
  Si  Si21  1  0.69180000  0.92780000  0.10280000  1
  Si  Si22  1  0.80820000  0.07220000  0.60280000  1
  Si  Si23  1  0.69180000  0.57220000  0.10280000  1
