# generated using pymatgen
data_SiO4
_symmetry_space_group_name_H-M   'P 1'
_cell_length_a   14.84400000
_cell_length_b   8.59400000
_cell_length_c   9.78400000
_cell_angle_alpha   90.00000000
_cell_angle_beta   90.00000000
_cell_angle_gamma   90.00000000
_symmetry_Int_Tables_number   1
_chemical_formula_structural   SiO4
_chemical_formula_sum   'Si1 O4'
_cell_volume   1248.13838342
_cell_formula_units_Z   1
loop_
 _symmetry_equiv_pos_site_id
 _symmetry_equiv_pos_as_xyz
  1  'x, y, z'
loop_
 _atom_site_type_symbol
 _atom_site_label
 _atom_site_symmetry_multiplicity
 _atom_site_fract_x
 _atom_site_fract_y
 _atom_site_fract_z
 _atom_site_occupancy
  Si  Si0  1  0.03750000  0.07110000  0.22830000  1
  O  O1  1  0.05550000  -0.04050000  0.09900000  1
  O  O2  1  0.03930000  0.25000000  0.17950000  1
  O  O3  1  -0.05940000  0.03160000  0.29350000  1
  O  O4  1  0.11470000  0.04330000  0.34130000  1
