# generated using pymatgen
data_SiO4
_symmetry_space_group_name_H-M   'P 1'
_cell_length_a   9.18040000
_cell_length_b   11.67352000
_cell_length_c   10.87849000
_cell_angle_alpha   90.00000000
_cell_angle_beta   91.67000000
_cell_angle_gamma   90.00000000
_symmetry_Int_Tables_number   1
_chemical_formula_structural   SiO4
_chemical_formula_sum   'Si1 O4'
_cell_volume   1165.32630476
_cell_formula_units_Z   1
loop_
 _symmetry_equiv_pos_site_id
 _symmetry_equiv_pos_as_xyz
  1  'x, y, z'
loop_
 _atom_site_type_symbol
 _atom_site_label
 _atom_site_symmetry_multiplicity
 _atom_site_fract_x
 _atom_site_fract_y
 _atom_site_fract_z
 _atom_site_occupancy
  Si  Si0  1  0.03921000  0.58612000  0.39070000  1
  O  O1  1  0.14967000  0.52392000  0.29964000  1
  O  O2  1  0.11280000  0.70129000  0.44510000  1
  O  O3  1  -0.10719000  0.61797000  0.31285000  1
  O  O4  1  0.00000000  0.50000000  0.50000000  1
