# generated using pymatgen
data_SiO4
_symmetry_space_group_name_H-M   'P 1'
_cell_length_a   9.18040000
_cell_length_b   11.67352000
_cell_length_c   10.87849000
_cell_angle_alpha   90.00000000
_cell_angle_beta   91.67000000
_cell_angle_gamma   90.00000000
_symmetry_Int_Tables_number   1
_chemical_formula_structural   SiO4
_chemical_formula_sum   'Si1 O4'
_cell_volume   1165.32630476
_cell_formula_units_Z   1
loop_
 _symmetry_equiv_pos_site_id
 _symmetry_equiv_pos_as_xyz
  1  'x, y, z'
loop_
 _atom_site_type_symbol
 _atom_site_label
 _atom_site_symmetry_multiplicity
 _atom_site_fract_x
 _atom_site_fract_y
 _atom_site_fract_z
 _atom_site_occupancy
  Si  Si0  1  0.67317000  0.51991000  0.00151000  1
  O  O1  1  0.71687000  0.58375000  -0.12338000  1
  O  O2  1  0.75755000  0.39925000  0.01235000  1
  O  O3  1  0.71902000  0.59941000  0.11730000  1
  O  O4  1  0.50000000  0.50000000  0.00000000  1
