# generated using pymatgen
data_Si
_symmetry_space_group_name_H-M   'P 1'
_cell_length_a   9.18040000
_cell_length_b   11.67352000
_cell_length_c   10.87849000
_cell_angle_alpha   90.00000000
_cell_angle_beta   91.67000000
_cell_angle_gamma   90.00000000
_symmetry_Int_Tables_number   1
_chemical_formula_structural   Si
_chemical_formula_sum   Si20
_cell_volume   1165.32630476
_cell_formula_units_Z   20
loop_
 _symmetry_equiv_pos_site_id
 _symmetry_equiv_pos_as_xyz
  1  'x, y, z'
loop_
 _atom_site_type_symbol
 _atom_site_label
 _atom_site_symmetry_multiplicity
 _atom_site_fract_x
 _atom_site_fract_y
 _atom_site_fract_z
 _atom_site_occupancy
  Si  Si0  1  0.15368000  0.40788000  0.21969000  1
  Si  Si1  1  0.84632000  0.90788000  0.28031000  1
  Si  Si2  1  0.84632000  0.59212000  0.78031000  1
  Si  Si3  1  0.15368000  0.09212000  0.71969000  1
  Si  Si4  1  0.08753000  0.83575000  0.46988000  1
  Si  Si5  1  0.91247000  0.33575000  0.03012000  1
  Si  Si6  1  0.91247000  0.16425000  0.53012000  1
  Si  Si7  1  0.08753000  0.66425000  0.96988000  1
  Si  Si8  1  0.14359000  0.16716000  0.32296000  1
  Si  Si9  1  0.85641000  0.66716000  0.17704000  1
  Si  Si10  1  0.85641000  0.83284000  0.67704000  1
  Si  Si11  1  0.14359000  0.33284000  0.82296000  1
  Si  Si12  1  0.32683000  0.48009000  0.99849000  1
  Si  Si13  1  0.67317000  0.98009000  0.50151000  1
  Si  Si14  1  0.67317000  0.51991000  0.00151000  1
  Si  Si15  1  0.32683000  0.01991000  0.49849000  1
  Si  Si16  1  0.03921000  0.58612000  0.39070000  1
  Si  Si17  1  0.96079000  0.08612000  0.10930000  1
  Si  Si18  1  0.96079000  0.41388000  0.60930000  1
  Si  Si19  1  0.03921000  0.91388000  0.89070000  1
