# generated using pymatgen
data_O2
_symmetry_space_group_name_H-M   'P 1'
_cell_length_a   9.18040000
_cell_length_b   11.67352000
_cell_length_c   10.87849000
_cell_angle_alpha   90.00000000
_cell_angle_beta   91.67000000
_cell_angle_gamma   90.00000000
_symmetry_Int_Tables_number   1
_chemical_formula_structural   O2
_chemical_formula_sum   O40
_cell_volume   1165.32630476
_cell_formula_units_Z   20
loop_
 _symmetry_equiv_pos_site_id
 _symmetry_equiv_pos_as_xyz
  1  'x, y, z'
loop_
 _atom_site_type_symbol
 _atom_site_label
 _atom_site_symmetry_multiplicity
 _atom_site_fract_x
 _atom_site_fract_y
 _atom_site_fract_z
 _atom_site_occupancy
  O  O0  1  0.14967000  0.52392000  0.29964000  1
  O  O1  1  0.85033000  0.02392000  0.20036000  1
  O  O2  1  0.85033000  0.47608000  0.70036000  1
  O  O3  1  0.14967000  0.97608000  0.79964000  1
  O  O4  1  0.00090000  0.39116000  0.14545000  1
  O  O5  1  0.99910000  0.89116000  0.35455000  1
  O  O6  1  0.99910000  0.60884000  0.85455000  1
  O  O7  1  0.00090000  0.10884000  0.64545000  1
  O  O8  1  0.18142000  0.30134000  0.31146000  1
  O  O9  1  0.81858000  0.80134000  0.18854000  1
  O  O10  1  0.81858000  0.69866000  0.68854000  1
  O  O11  1  0.18142000  0.19866000  0.81146000  1
  O  O12  1  0.28313000  0.41625000  0.12338000  1
  O  O13  1  0.71687000  0.91625000  0.37662000  1
  O  O14  1  0.71687000  0.58375000  0.87662000  1
  O  O15  1  0.28313000  0.08375000  0.62338000  1
  O  O16  1  0.75755000  0.39925000  0.01235000  1
  O  O17  1  0.24245000  0.89925000  0.48765000  1
  O  O18  1  0.24245000  0.60075000  0.98765000  1
  O  O19  1  0.75755000  0.10075000  0.51235000  1
  O  O20  1  0.00425000  0.14935000  0.40730000  1
  O  O21  1  0.99575000  0.64935000  0.09270000  1
  O  O22  1  0.99575000  0.85065000  0.59270000  1
  O  O23  1  0.00425000  0.35065000  0.90730000  1
  O  O24  1  0.11280000  0.70129000  0.44510000  1
  O  O25  1  0.88720000  0.20129000  0.05490000  1
  O  O26  1  0.88720000  0.29871000  0.55490000  1
  O  O27  1  0.11280000  0.79871000  0.94510000  1
  O  O28  1  0.28098000  0.09941000  0.38270000  1
  O  O29  1  0.71902000  0.59941000  0.11730000  1
  O  O30  1  0.71902000  0.90059000  0.61730000  1
  O  O31  1  0.28098000  0.40059000  0.88270000  1
  O  O32  1  0.10719000  0.11797000  0.18715000  1
  O  O33  1  0.89281000  0.61797000  0.31285000  1
  O  O34  1  0.89281000  0.88203000  0.81285000  1
  O  O35  1  0.10719000  0.38203000  0.68715000  1
  O  O36  1  0.50000000  0.00000000  0.50000000  1
  O  O37  1  0.50000000  0.50000000  0.00000000  1
  O  O38  1  0.00000000  0.00000000  0.00000000  1
  O  O39  1  0.00000000  0.50000000  0.50000000  1
