# generated using pymatgen
data_SiO4
_symmetry_space_group_name_H-M   'P 1'
_cell_length_a   13.06300000
_cell_length_b   13.06300000
_cell_length_c   7.56500000
_cell_angle_alpha   90.00000000
_cell_angle_beta   90.00000000
_cell_angle_gamma   120.00000000
_symmetry_Int_Tables_number   1
_chemical_formula_structural   SiO4
_chemical_formula_sum   'Si1 O4'
_cell_volume   1117.95781900
_cell_formula_units_Z   1
loop_
 _symmetry_equiv_pos_site_id
 _symmetry_equiv_pos_as_xyz
  1  'x, y, z'
loop_
 _atom_site_type_symbol
 _atom_site_label
 _atom_site_symmetry_multiplicity
 _atom_site_fract_x
 _atom_site_fract_y
 _atom_site_fract_z
 _atom_site_occupancy
  Si  Si0  1  0.76600000  0.00020000  0.20320000  1
  O  O1  1  0.80790000  -0.09600000  0.22440000  1
  O  O2  1  0.87180000  0.12820000  0.26180000  1
  O  O3  1  0.65230000  -0.03650000  0.32630000  1
  O  O4  1  0.73210000  0.00500000  0.00000000  1
