# generated using pymatgen
data_O2
_symmetry_space_group_name_H-M   'P 1'
_cell_length_a   13.06300000
_cell_length_b   13.06300000
_cell_length_c   7.56500000
_cell_angle_alpha   90.00000000
_cell_angle_beta   90.00000000
_cell_angle_gamma   120.00000000
_symmetry_Int_Tables_number   1
_chemical_formula_structural   O2
_chemical_formula_sum   O40
_cell_volume   1117.95781900
_cell_formula_units_Z   20
loop_
 _symmetry_equiv_pos_site_id
 _symmetry_equiv_pos_as_xyz
  1  'x, y, z'
loop_
 _atom_site_type_symbol
 _atom_site_label
 _atom_site_symmetry_multiplicity
 _atom_site_fract_x
 _atom_site_fract_y
 _atom_site_fract_z
 _atom_site_occupancy
  O  O0  1  0.09610000  0.19210000  0.22440000  1
  O  O1  1  0.80790000  0.90400000  0.22440000  1
  O  O2  1  0.09600000  0.90390000  0.22440000  1
  O  O3  1  0.09610000  0.19210000  0.77560000  1
  O  O4  1  0.80790000  0.90400000  0.77560000  1
  O  O5  1  0.09600000  0.90390000  0.77560000  1
  O  O6  1  0.09600000  0.19210000  0.22440000  1
  O  O7  1  0.09610000  0.90400000  0.22440000  1
  O  O8  1  0.09600000  0.19210000  0.77560000  1
  O  O9  1  0.09610000  0.90400000  0.77560000  1
  O  O10  1  0.87180000  0.12820000  0.26180000  1
  O  O11  1  0.87180000  0.74360000  0.26180000  1
  O  O12  1  0.25640000  0.12820000  0.26180000  1
  O  O13  1  0.87180000  0.12820000  0.73820000  1
  O  O14  1  0.87180000  0.74360000  0.73820000  1
  O  O15  1  0.25640000  0.12820000  0.73820000  1
  O  O16  1  0.03650000  0.34770000  0.32630000  1
  O  O17  1  0.65230000  0.68880000  0.32630000  1
  O  O18  1  0.31120000  0.96350000  0.32630000  1
  O  O19  1  0.03650000  0.34770000  0.67370000  1
  O  O20  1  0.65230000  0.68880000  0.67370000  1
  O  O21  1  0.31120000  0.96350000  0.67370000  1
  O  O22  1  0.65230000  0.96350000  0.32630000  1
  O  O23  1  0.31120000  0.34770000  0.32630000  1
  O  O24  1  0.03650000  0.68880000  0.32630000  1
  O  O25  1  0.65230000  0.96350000  0.67370000  1
  O  O26  1  0.31120000  0.34770000  0.67370000  1
  O  O27  1  0.03650000  0.68880000  0.67370000  1
  O  O28  1  0.99500000  0.26790000  0.00000000  1
  O  O29  1  0.73210000  0.72710000  0.00000000  1
  O  O30  1  0.27290000  0.00500000  0.00000000  1
  O  O31  1  0.73210000  0.00500000  0.00000000  1
  O  O32  1  0.27290000  0.26790000  0.00000000  1
  O  O33  1  0.99500000  0.72710000  0.00000000  1
  O  O34  1  0.23590000  0.47180000  0.50000000  1
  O  O35  1  0.52820000  0.76410000  0.50000000  1
  O  O36  1  0.23590000  0.76410000  0.50000000  1
  O  O37  1  0.07560000  0.53780000  0.50000000  1
  O  O38  1  0.46220000  0.53780000  0.50000000  1
  O  O39  1  0.46220000  0.92440000  0.50000000  1
