# generated using pymatgen
data_Si
_symmetry_space_group_name_H-M   'P 1'
_cell_length_a   13.06300000
_cell_length_b   13.06300000
_cell_length_c   7.56500000
_cell_angle_alpha   90.00000000
_cell_angle_beta   90.00000000
_cell_angle_gamma   120.00000000
_symmetry_Int_Tables_number   1
_chemical_formula_structural   Si
_chemical_formula_sum   Si18
_cell_volume   1117.95781900
_cell_formula_units_Z   18
loop_
 _symmetry_equiv_pos_site_id
 _symmetry_equiv_pos_as_xyz
  1  'x, y, z'
loop_
 _atom_site_type_symbol
 _atom_site_label
 _atom_site_symmetry_multiplicity
 _atom_site_fract_x
 _atom_site_fract_y
 _atom_site_fract_z
 _atom_site_occupancy
  Si  Si0  1  0.99980000  0.23400000  0.20320000  1
  Si  Si1  1  0.76600000  0.76580000  0.20320000  1
  Si  Si2  1  0.23420000  0.00020000  0.20320000  1
  Si  Si3  1  0.99980000  0.23400000  0.79680000  1
  Si  Si4  1  0.76600000  0.76580000  0.79680000  1
  Si  Si5  1  0.23420000  0.00020000  0.79680000  1
  Si  Si6  1  0.76600000  0.00020000  0.20320000  1
  Si  Si7  1  0.23420000  0.23400000  0.20320000  1
  Si  Si8  1  0.99980000  0.76580000  0.20320000  1
  Si  Si9  1  0.76600000  0.00020000  0.79680000  1
  Si  Si10  1  0.23420000  0.23400000  0.79680000  1
  Si  Si11  1  0.99980000  0.76580000  0.79680000  1
  Si  Si12  1  0.09640000  0.42640000  0.50000000  1
  Si  Si13  1  0.57360000  0.67000000  0.50000000  1
  Si  Si14  1  0.33000000  0.90360000  0.50000000  1
  Si  Si15  1  0.57360000  0.90360000  0.50000000  1
  Si  Si16  1  0.33000000  0.42640000  0.50000000  1
  Si  Si17  1  0.09640000  0.67000000  0.50000000  1
