# generated using pymatgen
data_SiO4
_symmetry_space_group_name_H-M   'P 1'
_cell_length_a   20.75300000
_cell_length_b   9.80400000
_cell_length_c   20.00900000
_cell_angle_alpha   90.00000000
_cell_angle_beta   90.00000000
_cell_angle_gamma   90.00000000
_symmetry_Int_Tables_number   1
_chemical_formula_structural   SiO4
_chemical_formula_sum   'Si1 O4'
_cell_volume   4071.07940171
_cell_formula_units_Z   1
loop_
 _symmetry_equiv_pos_site_id
 _symmetry_equiv_pos_as_xyz
  1  'x, y, z'
loop_
 _atom_site_type_symbol
 _atom_site_label
 _atom_site_symmetry_multiplicity
 _atom_site_fract_x
 _atom_site_fract_y
 _atom_site_fract_z
 _atom_site_occupancy
  Si  Si0  1  0.68250000  0.96850000  0.32830000  1
  O  O1  1  0.73860000  0.86730000  0.35620000  1
  O  O2  1  0.66860000  0.93500000  0.25000000  1
  O  O3  1  0.70590000  1.12620000  0.33600000  1
  O  O4  1  0.61670000  0.94570000  0.37120000  1
