# generated using pymatgen
data_SiO4
_symmetry_space_group_name_H-M   'P 1'
_cell_length_a   20.75300000
_cell_length_b   9.80400000
_cell_length_c   20.00900000
_cell_angle_alpha   90.00000000
_cell_angle_beta   90.00000000
_cell_angle_gamma   90.00000000
_symmetry_Int_Tables_number   1
_chemical_formula_structural   SiO4
_chemical_formula_sum   'Si1 O4'
_cell_volume   4071.07940171
_cell_formula_units_Z   1
loop_
 _symmetry_equiv_pos_site_id
 _symmetry_equiv_pos_as_xyz
  1  'x, y, z'
loop_
 _atom_site_type_symbol
 _atom_site_label
 _atom_site_symmetry_multiplicity
 _atom_site_fract_x
 _atom_site_fract_y
 _atom_site_fract_z
 _atom_site_occupancy
  Si  Si0  1  0.31750000  0.03150000  0.67170000  1
  O  O1  1  0.26140000  0.13270000  0.64380000  1
  O  O2  1  0.33140000  0.06500000  0.75000000  1
  O  O3  1  0.29410000  -0.12620000  0.66400000  1
  O  O4  1  0.38330000  0.05430000  0.62880000  1
