# generated using pymatgen
data_Si
_symmetry_space_group_name_H-M   'P 1'
_cell_length_a   20.75300000
_cell_length_b   9.80400000
_cell_length_c   20.00900000
_cell_angle_alpha   90.00000000
_cell_angle_beta   90.00000000
_cell_angle_gamma   90.00000000
_symmetry_Int_Tables_number   1
_chemical_formula_structural   Si
_chemical_formula_sum   Si64
_cell_volume   4071.07940171
_cell_formula_units_Z   64
loop_
 _symmetry_equiv_pos_site_id
 _symmetry_equiv_pos_as_xyz
  1  'x, y, z'
loop_
 _atom_site_type_symbol
 _atom_site_label
 _atom_site_symmetry_multiplicity
 _atom_site_fract_x
 _atom_site_fract_y
 _atom_site_fract_z
 _atom_site_occupancy
  Si  Si0  1  0.31750000  0.96850000  0.17170000  1
  Si  Si1  1  0.81750000  0.46850000  0.17170000  1
  Si  Si2  1  0.68250000  0.96850000  0.17170000  1
  Si  Si3  1  0.18250000  0.46850000  0.17170000  1
  Si  Si4  1  0.31750000  0.03150000  0.67170000  1
  Si  Si5  1  0.81750000  0.53150000  0.67170000  1
  Si  Si6  1  0.68250000  0.03150000  0.67170000  1
  Si  Si7  1  0.18250000  0.53150000  0.67170000  1
  Si  Si8  1  0.68250000  0.03150000  0.82830000  1
  Si  Si9  1  0.18250000  0.53150000  0.82830000  1
  Si  Si10  1  0.31750000  0.03150000  0.82830000  1
  Si  Si11  1  0.81750000  0.53150000  0.82830000  1
  Si  Si12  1  0.68250000  0.96850000  0.32830000  1
  Si  Si13  1  0.18250000  0.46850000  0.32830000  1
  Si  Si14  1  0.31750000  0.96850000  0.32830000  1
  Si  Si15  1  0.81750000  0.46850000  0.32830000  1
  Si  Si16  1  0.07670000  0.40320000  0.06200000  1
  Si  Si17  1  0.57670000  0.90320000  0.06200000  1
  Si  Si18  1  0.92330000  0.40320000  0.06200000  1
  Si  Si19  1  0.42330000  0.90320000  0.06200000  1
  Si  Si20  1  0.07670000  0.59680000  0.56200000  1
  Si  Si21  1  0.57670000  0.09680000  0.56200000  1
  Si  Si22  1  0.92330000  0.59680000  0.56200000  1
  Si  Si23  1  0.42330000  0.09680000  0.56200000  1
  Si  Si24  1  0.92330000  0.59680000  0.93800000  1
  Si  Si25  1  0.42330000  0.09680000  0.93800000  1
  Si  Si26  1  0.07670000  0.59680000  0.93800000  1
  Si  Si27  1  0.57670000  0.09680000  0.93800000  1
  Si  Si28  1  0.92330000  0.40320000  0.43800000  1
  Si  Si29  1  0.42330000  0.90320000  0.43800000  1
  Si  Si30  1  0.07670000  0.40320000  0.43800000  1
  Si  Si31  1  0.57670000  0.90320000  0.43800000  1
  Si  Si32  1  0.26770000  0.23220000  0.10760000  1
  Si  Si33  1  0.76770000  0.73220000  0.10760000  1
  Si  Si34  1  0.73230000  0.23220000  0.10760000  1
  Si  Si35  1  0.23230000  0.73220000  0.10760000  1
  Si  Si36  1  0.26770000  0.76780000  0.60760000  1
  Si  Si37  1  0.76770000  0.26780000  0.60760000  1
  Si  Si38  1  0.73230000  0.76780000  0.60760000  1
  Si  Si39  1  0.23230000  0.26780000  0.60760000  1
  Si  Si40  1  0.73230000  0.76780000  0.89240000  1
  Si  Si41  1  0.23230000  0.26780000  0.89240000  1
  Si  Si42  1  0.26770000  0.76780000  0.89240000  1
  Si  Si43  1  0.76770000  0.26780000  0.89240000  1
  Si  Si44  1  0.73230000  0.23220000  0.39240000  1
  Si  Si45  1  0.23230000  0.73220000  0.39240000  1
  Si  Si46  1  0.26770000  0.23220000  0.39240000  1
  Si  Si47  1  0.76770000  0.73220000  0.39240000  1
  Si  Si48  1  0.15120000  0.15650000  0.01210000  1
  Si  Si49  1  0.65120000  0.65650000  0.01210000  1
  Si  Si50  1  0.84880000  0.15650000  0.01210000  1
  Si  Si51  1  0.34880000  0.65650000  0.01210000  1
  Si  Si52  1  0.15120000  0.84350000  0.51210000  1
  Si  Si53  1  0.65120000  0.34350000  0.51210000  1
  Si  Si54  1  0.84880000  0.84350000  0.51210000  1
  Si  Si55  1  0.34880000  0.34350000  0.51210000  1
  Si  Si56  1  0.84880000  0.84350000  0.98790000  1
  Si  Si57  1  0.34880000  0.34350000  0.98790000  1
  Si  Si58  1  0.15120000  0.84350000  0.98790000  1
  Si  Si59  1  0.65120000  0.34350000  0.98790000  1
  Si  Si60  1  0.84880000  0.15650000  0.48790000  1
  Si  Si61  1  0.34880000  0.65650000  0.48790000  1
  Si  Si62  1  0.15120000  0.15650000  0.48790000  1
  Si  Si63  1  0.65120000  0.65650000  0.48790000  1
