# generated using pymatgen
data_O2
_symmetry_space_group_name_H-M   'P 1'
_cell_length_a   20.75300000
_cell_length_b   9.80400000
_cell_length_c   20.00900000
_cell_angle_alpha   90.00000000
_cell_angle_beta   90.00000000
_cell_angle_gamma   90.00000000
_symmetry_Int_Tables_number   1
_chemical_formula_structural   O2
_chemical_formula_sum   O128
_cell_volume   4071.07940171
_cell_formula_units_Z   64
loop_
 _symmetry_equiv_pos_site_id
 _symmetry_equiv_pos_as_xyz
  1  'x, y, z'
loop_
 _atom_site_type_symbol
 _atom_site_label
 _atom_site_symmetry_multiplicity
 _atom_site_fract_x
 _atom_site_fract_y
 _atom_site_fract_z
 _atom_site_occupancy
  O  O0  1  0.26140000  0.86730000  0.14380000  1
  O  O1  1  0.76140000  0.36730000  0.14380000  1
  O  O2  1  0.73860000  0.86730000  0.14380000  1
  O  O3  1  0.23860000  0.36730000  0.14380000  1
  O  O4  1  0.26140000  0.13270000  0.64380000  1
  O  O5  1  0.76140000  0.63270000  0.64380000  1
  O  O6  1  0.73860000  0.13270000  0.64380000  1
  O  O7  1  0.23860000  0.63270000  0.64380000  1
  O  O8  1  0.73860000  0.13270000  0.85620000  1
  O  O9  1  0.23860000  0.63270000  0.85620000  1
  O  O10  1  0.26140000  0.13270000  0.85620000  1
  O  O11  1  0.76140000  0.63270000  0.85620000  1
  O  O12  1  0.73860000  0.86730000  0.35620000  1
  O  O13  1  0.23860000  0.36730000  0.35620000  1
  O  O14  1  0.26140000  0.86730000  0.35620000  1
  O  O15  1  0.76140000  0.36730000  0.35620000  1
  O  O16  1  0.33140000  0.93500000  0.25000000  1
  O  O17  1  0.83140000  0.43500000  0.25000000  1
  O  O18  1  0.66860000  0.93500000  0.25000000  1
  O  O19  1  0.16860000  0.43500000  0.25000000  1
  O  O20  1  0.33140000  0.06500000  0.75000000  1
  O  O21  1  0.83140000  0.56500000  0.75000000  1
  O  O22  1  0.66860000  0.06500000  0.75000000  1
  O  O23  1  0.16860000  0.56500000  0.75000000  1
  O  O24  1  0.29410000  0.12620000  0.16400000  1
  O  O25  1  0.79410000  0.62620000  0.16400000  1
  O  O26  1  0.70590000  0.12620000  0.16400000  1
  O  O27  1  0.20590000  0.62620000  0.16400000  1
  O  O28  1  0.29410000  0.87380000  0.66400000  1
  O  O29  1  0.79410000  0.37380000  0.66400000  1
  O  O30  1  0.70590000  0.87380000  0.66400000  1
  O  O31  1  0.20590000  0.37380000  0.66400000  1
  O  O32  1  0.70590000  0.87380000  0.83600000  1
  O  O33  1  0.20590000  0.37380000  0.83600000  1
  O  O34  1  0.29410000  0.87380000  0.83600000  1
  O  O35  1  0.79410000  0.37380000  0.83600000  1
  O  O36  1  0.70590000  0.12620000  0.33600000  1
  O  O37  1  0.20590000  0.62620000  0.33600000  1
  O  O38  1  0.29410000  0.12620000  0.33600000  1
  O  O39  1  0.79410000  0.62620000  0.33600000  1
  O  O40  1  0.38330000  0.94570000  0.12880000  1
  O  O41  1  0.88330000  0.44570000  0.12880000  1
  O  O42  1  0.61670000  0.94570000  0.12880000  1
  O  O43  1  0.11670000  0.44570000  0.12880000  1
  O  O44  1  0.38330000  0.05430000  0.62880000  1
  O  O45  1  0.88330000  0.55430000  0.62880000  1
  O  O46  1  0.61670000  0.05430000  0.62880000  1
  O  O47  1  0.11670000  0.55430000  0.62880000  1
  O  O48  1  0.61670000  0.05430000  0.87120000  1
  O  O49  1  0.11670000  0.55430000  0.87120000  1
  O  O50  1  0.38330000  0.05430000  0.87120000  1
  O  O51  1  0.88330000  0.55430000  0.87120000  1
  O  O52  1  0.61670000  0.94570000  0.37120000  1
  O  O53  1  0.11670000  0.44570000  0.37120000  1
  O  O54  1  0.38330000  0.94570000  0.37120000  1
  O  O55  1  0.88330000  0.44570000  0.37120000  1
  O  O56  1  0.09870000  0.50000000  0.00000000  1
  O  O57  1  0.59870000  0.00000000  0.00000000  1
  O  O58  1  0.90130000  0.50000000  0.00000000  1
  O  O59  1  0.40130000  0.00000000  0.00000000  1
  O  O60  1  0.09870000  0.50000000  0.50000000  1
  O  O61  1  0.59870000  0.00000000  0.50000000  1
  O  O62  1  0.90130000  0.50000000  0.50000000  1
  O  O63  1  0.40130000  0.00000000  0.50000000  1
  O  O64  1  0.00000000  0.42220000  0.07580000  1
  O  O65  1  0.50000000  0.92220000  0.07580000  1
  O  O66  1  0.00000000  0.57780000  0.57580000  1
  O  O67  1  0.50000000  0.07780000  0.57580000  1
  O  O68  1  0.00000000  0.57780000  0.92420000  1
  O  O69  1  0.50000000  0.07780000  0.92420000  1
  O  O70  1  0.00000000  0.42220000  0.42420000  1
  O  O71  1  0.50000000  0.92220000  0.42420000  1
  O  O72  1  0.09200000  0.24470000  0.04360000  1
  O  O73  1  0.59200000  0.74470000  0.04360000  1
  O  O74  1  0.90800000  0.24470000  0.04360000  1
  O  O75  1  0.40800000  0.74470000  0.04360000  1
  O  O76  1  0.09200000  0.75530000  0.54360000  1
  O  O77  1  0.59200000  0.25530000  0.54360000  1
  O  O78  1  0.90800000  0.75530000  0.54360000  1
  O  O79  1  0.40800000  0.25530000  0.54360000  1
  O  O80  1  0.90800000  0.75530000  0.95640000  1
  O  O81  1  0.40800000  0.25530000  0.95640000  1
  O  O82  1  0.09200000  0.75530000  0.95640000  1
  O  O83  1  0.59200000  0.25530000  0.95640000  1
  O  O84  1  0.90800000  0.24470000  0.45640000  1
  O  O85  1  0.40800000  0.74470000  0.45640000  1
  O  O86  1  0.09200000  0.24470000  0.45640000  1
  O  O87  1  0.59200000  0.74470000  0.45640000  1
  O  O88  1  0.32700000  0.27630000  0.05880000  1
  O  O89  1  0.82700000  0.77630000  0.05880000  1
  O  O90  1  0.67300000  0.27630000  0.05880000  1
  O  O91  1  0.17300000  0.77630000  0.05880000  1
  O  O92  1  0.32700000  0.72370000  0.55880000  1
  O  O93  1  0.82700000  0.22370000  0.55880000  1
  O  O94  1  0.67300000  0.72370000  0.55880000  1
  O  O95  1  0.17300000  0.22370000  0.55880000  1
  O  O96  1  0.67300000  0.72370000  0.94120000  1
  O  O97  1  0.17300000  0.22370000  0.94120000  1
  O  O98  1  0.32700000  0.72370000  0.94120000  1
  O  O99  1  0.82700000  0.22370000  0.94120000  1
  O  O100  1  0.67300000  0.27630000  0.44120000  1
  O  O101  1  0.17300000  0.77630000  0.44120000  1
  O  O102  1  0.32700000  0.27630000  0.44120000  1
  O  O103  1  0.82700000  0.77630000  0.44120000  1
  O  O104  1  0.21180000  0.15810000  0.06370000  1
  O  O105  1  0.71180000  0.65810000  0.06370000  1
  O  O106  1  0.78820000  0.15810000  0.06370000  1
  O  O107  1  0.28820000  0.65810000  0.06370000  1
  O  O108  1  0.21180000  0.84190000  0.56370000  1
  O  O109  1  0.71180000  0.34190000  0.56370000  1
  O  O110  1  0.78820000  0.84190000  0.56370000  1
  O  O111  1  0.28820000  0.34190000  0.56370000  1
  O  O112  1  0.78820000  0.84190000  0.93630000  1
  O  O113  1  0.28820000  0.34190000  0.93630000  1
  O  O114  1  0.21180000  0.84190000  0.93630000  1
  O  O115  1  0.71180000  0.34190000  0.93630000  1
  O  O116  1  0.78820000  0.15810000  0.43630000  1
  O  O117  1  0.28820000  0.65810000  0.43630000  1
  O  O118  1  0.21180000  0.15810000  0.43630000  1
  O  O119  1  0.71180000  0.65810000  0.43630000  1
  O  O120  1  0.12780000  0.00000000  0.00000000  1
  O  O121  1  0.62780000  0.50000000  0.00000000  1
  O  O122  1  0.87220000  0.00000000  0.00000000  1
  O  O123  1  0.37220000  0.50000000  0.00000000  1
  O  O124  1  0.12780000  0.00000000  0.50000000  1
  O  O125  1  0.62780000  0.50000000  0.50000000  1
  O  O126  1  0.87220000  0.00000000  0.50000000  1
  O  O127  1  0.37220000  0.50000000  0.50000000  1
