# generated using pymatgen
data_O2
_symmetry_space_group_name_H-M   'P 1'
_cell_length_a   12.54800000
_cell_length_b   12.54800000
_cell_length_c   20.78900000
_cell_angle_alpha   90.00000000
_cell_angle_beta   90.00000000
_cell_angle_gamma   120.00000000
_symmetry_Int_Tables_number   1
_chemical_formula_structural   O2
_chemical_formula_sum   O96
_cell_volume   2834.74012444
_cell_formula_units_Z   48
loop_
 _symmetry_equiv_pos_site_id
 _symmetry_equiv_pos_as_xyz
  1  'x, y, z'
loop_
 _atom_site_type_symbol
 _atom_site_label
 _atom_site_symmetry_multiplicity
 _atom_site_fract_x
 _atom_site_fract_y
 _atom_site_fract_z
 _atom_site_occupancy
  O  O0  1  0.66080000  0.69530000  0.06060000  1
  O  O1  1  0.30470000  0.96550000  0.06060000  1
  O  O2  1  0.03450000  0.33920000  0.06060000  1
  O  O3  1  0.33920000  0.30470000  0.56060000  1
  O  O4  1  0.69530000  0.03450000  0.56060000  1
  O  O5  1  0.96550000  0.66080000  0.56060000  1
  O  O6  1  0.30470000  0.33920000  0.06060000  1
  O  O7  1  0.03450000  0.69530000  0.06060000  1
  O  O8  1  0.66080000  0.96550000  0.06060000  1
  O  O9  1  0.69530000  0.66080000  0.56060000  1
  O  O10  1  0.96550000  0.30470000  0.56060000  1
  O  O11  1  0.33920000  0.03450000  0.56060000  1
  O  O12  1  0.33920000  0.30470000  0.93940000  1
  O  O13  1  0.69530000  0.03450000  0.93940000  1
  O  O14  1  0.96550000  0.66080000  0.93940000  1
  O  O15  1  0.66080000  0.69530000  0.43940000  1
  O  O16  1  0.30470000  0.96550000  0.43940000  1
  O  O17  1  0.03450000  0.33920000  0.43940000  1
  O  O18  1  0.69530000  0.66080000  0.93940000  1
  O  O19  1  0.96550000  0.30470000  0.93940000  1
  O  O20  1  0.33920000  0.03450000  0.93940000  1
  O  O21  1  0.30470000  0.33920000  0.43940000  1
  O  O22  1  0.03450000  0.69530000  0.43940000  1
  O  O23  1  0.66080000  0.96550000  0.43940000  1
  O  O24  1  0.66800000  0.69120000  0.18680000  1
  O  O25  1  0.30880000  0.97680000  0.18680000  1
  O  O26  1  0.02320000  0.33200000  0.18680000  1
  O  O27  1  0.33200000  0.30880000  0.68680000  1
  O  O28  1  0.69120000  0.02320000  0.68680000  1
  O  O29  1  0.97680000  0.66800000  0.68680000  1
  O  O30  1  0.30880000  0.33200000  0.18680000  1
  O  O31  1  0.02320000  0.69120000  0.18680000  1
  O  O32  1  0.66800000  0.97680000  0.18680000  1
  O  O33  1  0.69120000  0.66800000  0.68680000  1
  O  O34  1  0.97680000  0.30880000  0.68680000  1
  O  O35  1  0.33200000  0.02320000  0.68680000  1
  O  O36  1  0.33200000  0.30880000  0.81320000  1
  O  O37  1  0.69120000  0.02320000  0.81320000  1
  O  O38  1  0.97680000  0.66800000  0.81320000  1
  O  O39  1  0.66800000  0.69120000  0.31320000  1
  O  O40  1  0.30880000  0.97680000  0.31320000  1
  O  O41  1  0.02320000  0.33200000  0.31320000  1
  O  O42  1  0.69120000  0.66800000  0.81320000  1
  O  O43  1  0.97680000  0.30880000  0.81320000  1
  O  O44  1  0.33200000  0.02320000  0.81320000  1
  O  O45  1  0.30880000  0.33200000  0.31320000  1
  O  O46  1  0.02320000  0.69120000  0.31320000  1
  O  O47  1  0.66800000  0.97680000  0.31320000  1
  O  O48  1  0.53030000  0.76520000  0.12880000  1
  O  O49  1  0.23480000  0.76510000  0.12880000  1
  O  O50  1  0.23490000  0.46970000  0.12880000  1
  O  O51  1  0.46970000  0.23480000  0.62880000  1
  O  O52  1  0.76520000  0.23490000  0.62880000  1
  O  O53  1  0.76510000  0.53030000  0.62880000  1
  O  O54  1  0.46970000  0.23480000  0.87120000  1
  O  O55  1  0.76520000  0.23490000  0.87120000  1
  O  O56  1  0.76510000  0.53030000  0.87120000  1
  O  O57  1  0.53030000  0.76520000  0.37120000  1
  O  O58  1  0.23480000  0.76510000  0.37120000  1
  O  O59  1  0.23490000  0.46970000  0.37120000  1
  O  O60  1  0.46850000  0.53140000  0.12530000  1
  O  O61  1  0.46860000  0.93710000  0.12530000  1
  O  O62  1  0.06290000  0.53150000  0.12530000  1
  O  O63  1  0.53150000  0.46860000  0.62530000  1
  O  O64  1  0.53140000  0.06290000  0.62530000  1
  O  O65  1  0.93710000  0.46850000  0.62530000  1
  O  O66  1  0.53150000  0.46860000  0.87470000  1
  O  O67  1  0.53140000  0.06290000  0.87470000  1
  O  O68  1  0.93710000  0.46850000  0.87470000  1
  O  O69  1  0.46850000  0.53140000  0.37470000  1
  O  O70  1  0.46860000  0.93710000  0.37470000  1
  O  O71  1  0.06290000  0.53150000  0.37470000  1
  O  O72  1  0.10130000  0.89870000  0.25000000  1
  O  O73  1  0.10130000  0.20260000  0.25000000  1
  O  O74  1  0.79740000  0.89870000  0.25000000  1
  O  O75  1  0.89870000  0.10130000  0.75000000  1
  O  O76  1  0.89870000  0.79740000  0.75000000  1
  O  O77  1  0.20260000  0.10130000  0.75000000  1
  O  O78  1  0.26840000  0.13420000  0.25000000  1
  O  O79  1  0.86580000  0.13420000  0.25000000  1
  O  O80  1  0.86580000  0.73160000  0.25000000  1
  O  O81  1  0.73160000  0.86580000  0.75000000  1
  O  O82  1  0.13420000  0.86580000  0.75000000  1
  O  O83  1  0.13420000  0.26840000  0.75000000  1
  O  O84  1  0.11590000  0.88420000  0.98190000  1
  O  O85  1  0.11580000  0.23170000  0.98190000  1
  O  O86  1  0.76830000  0.88410000  0.98190000  1
  O  O87  1  0.88410000  0.11580000  0.48190000  1
  O  O88  1  0.88420000  0.76830000  0.48190000  1
  O  O89  1  0.23170000  0.11590000  0.48190000  1
  O  O90  1  0.88410000  0.11580000  0.01810000  1
  O  O91  1  0.88420000  0.76830000  0.01810000  1
  O  O92  1  0.23170000  0.11590000  0.01810000  1
  O  O93  1  0.11590000  0.88420000  0.51810000  1
  O  O94  1  0.11580000  0.23170000  0.51810000  1
  O  O95  1  0.76830000  0.88410000  0.51810000  1
