# generated using pymatgen
data_SiO4
_symmetry_space_group_name_H-M   'P 1'
_cell_length_a   12.54800000
_cell_length_b   12.54800000
_cell_length_c   20.78900000
_cell_angle_alpha   90.00000000
_cell_angle_beta   90.00000000
_cell_angle_gamma   120.00000000
_symmetry_Int_Tables_number   1
_chemical_formula_structural   SiO4
_chemical_formula_sum   'Si1 O4'
_cell_volume   2834.74012444
_cell_formula_units_Z   1
loop_
 _symmetry_equiv_pos_site_id
 _symmetry_equiv_pos_as_xyz
  1  'x, y, z'
loop_
 _atom_site_type_symbol
 _atom_site_label
 _atom_site_symmetry_multiplicity
 _atom_site_fract_x
 _atom_site_fract_y
 _atom_site_fract_z
 _atom_site_occupancy
  Si  Si0  1  0.91110000  0.32940000  0.62540000  1
  O  O1  1  0.96550000  0.30470000  0.56060000  1
  O  O2  1  0.97680000  0.30880000  0.68680000  1
  O  O3  1  0.76520000  0.23490000  0.62880000  1
  O  O4  1  0.93710000  0.46850000  0.62530000  1
