# generated using pymatgen
data_O2
_symmetry_space_group_name_H-M   'P 1'
_cell_length_a   12.49400000
_cell_length_b   12.49400000
_cell_length_c   5.25400000
_cell_angle_alpha   90.00000000
_cell_angle_beta   90.00000000
_cell_angle_gamma   120.00000000
_symmetry_Int_Tables_number   1
_chemical_formula_structural   O2
_chemical_formula_sum   O24
_cell_volume   710.27037910
_cell_formula_units_Z   12
loop_
 _symmetry_equiv_pos_site_id
 _symmetry_equiv_pos_as_xyz
  1  'x, y, z'
loop_
 _atom_site_type_symbol
 _atom_site_label
 _atom_site_symmetry_multiplicity
 _atom_site_fract_x
 _atom_site_fract_y
 _atom_site_fract_z
 _atom_site_occupancy
  O  O0  1  0.00000000  0.35650000  0.50000000  1
  O  O1  1  0.64350000  0.64350000  0.50000000  1
  O  O2  1  0.35650000  0.00000000  0.50000000  1
  O  O3  1  0.00000000  0.64350000  0.00000000  1
  O  O4  1  0.35650000  0.35650000  0.00000000  1
  O  O5  1  0.64350000  0.00000000  0.00000000  1
  O  O6  1  0.64350000  0.00000000  0.50000000  1
  O  O7  1  0.35650000  0.35650000  0.50000000  1
  O  O8  1  0.00000000  0.64350000  0.50000000  1
  O  O9  1  0.35650000  0.00000000  0.00000000  1
  O  O10  1  0.64350000  0.64350000  0.00000000  1
  O  O11  1  0.00000000  0.35650000  0.00000000  1
  O  O12  1  0.19860000  0.39720000  0.75000000  1
  O  O13  1  0.60280000  0.80140000  0.75000000  1
  O  O14  1  0.19860000  0.80140000  0.75000000  1
  O  O15  1  0.80140000  0.60280000  0.25000000  1
  O  O16  1  0.39720000  0.19860000  0.25000000  1
  O  O17  1  0.80140000  0.19860000  0.25000000  1
  O  O18  1  0.12990000  0.56500000  0.75000000  1
  O  O19  1  0.43500000  0.56490000  0.75000000  1
  O  O20  1  0.43510000  0.87010000  0.75000000  1
  O  O21  1  0.87010000  0.43500000  0.25000000  1
  O  O22  1  0.56500000  0.43510000  0.25000000  1
  O  O23  1  0.56490000  0.12990000  0.25000000  1
