# generated using pymatgen
data_Si
_symmetry_space_group_name_H-M   'P 1'
_cell_length_a   17.25200000
_cell_length_b   17.25200000
_cell_length_c   17.25200000
_cell_angle_alpha   90.00000000
_cell_angle_beta   90.00000000
_cell_angle_gamma   90.00000000
_symmetry_Int_Tables_number   1
_chemical_formula_structural   Si
_chemical_formula_sum   Si96
_cell_volume   5134.73870701
_cell_formula_units_Z   96
loop_
 _symmetry_equiv_pos_site_id
 _symmetry_equiv_pos_as_xyz
  1  'x, y, z'
loop_
 _atom_site_type_symbol
 _atom_site_label
 _atom_site_symmetry_multiplicity
 _atom_site_fract_x
 _atom_site_fract_y
 _atom_site_fract_z
 _atom_site_occupancy
  Si  Si0  1  0.25600000  0.34900000  0.11380000  1
  Si  Si1  1  0.75600000  0.84900000  0.61380000  1
  Si  Si2  1  0.11380000  0.25600000  0.34900000  1
  Si  Si3  1  0.61380000  0.75600000  0.84900000  1
  Si  Si4  1  0.34900000  0.11380000  0.25600000  1
  Si  Si5  1  0.84900000  0.61380000  0.75600000  1
  Si  Si6  1  0.75600000  0.34900000  0.38620000  1
  Si  Si7  1  0.25600000  0.84900000  0.88620000  1
  Si  Si8  1  0.61380000  0.25600000  0.15100000  1
  Si  Si9  1  0.11380000  0.75600000  0.65100000  1
  Si  Si10  1  0.84900000  0.11380000  0.24400000  1
  Si  Si11  1  0.34900000  0.61380000  0.74400000  1
  Si  Si12  1  0.24400000  0.84900000  0.11380000  1
  Si  Si13  1  0.74400000  0.34900000  0.61380000  1
  Si  Si14  1  0.38620000  0.75600000  0.34900000  1
  Si  Si15  1  0.88620000  0.25600000  0.84900000  1
  Si  Si16  1  0.15100000  0.61380000  0.25600000  1
  Si  Si17  1  0.65100000  0.11380000  0.75600000  1
  Si  Si18  1  0.74400000  0.84900000  0.38620000  1
  Si  Si19  1  0.24400000  0.34900000  0.88620000  1
  Si  Si20  1  0.88620000  0.75600000  0.15100000  1
  Si  Si21  1  0.38620000  0.25600000  0.65100000  1
  Si  Si22  1  0.65100000  0.61380000  0.24400000  1
  Si  Si23  1  0.15100000  0.11380000  0.74400000  1
  Si  Si24  1  0.59900000  0.50600000  0.36380000  1
  Si  Si25  1  0.09900000  0.00600000  0.86380000  1
  Si  Si26  1  0.50600000  0.36380000  0.59900000  1
  Si  Si27  1  0.00600000  0.86380000  0.09900000  1
  Si  Si28  1  0.36380000  0.59900000  0.50600000  1
  Si  Si29  1  0.86380000  0.09900000  0.00600000  1
  Si  Si30  1  0.59900000  0.00600000  0.63620000  1
  Si  Si31  1  0.09900000  0.50600000  0.13620000  1
  Si  Si32  1  0.50600000  0.86380000  0.40100000  1
  Si  Si33  1  0.00600000  0.36380000  0.90100000  1
  Si  Si34  1  0.36380000  0.09900000  0.49400000  1
  Si  Si35  1  0.86380000  0.59900000  0.99400000  1
  Si  Si36  1  0.09900000  0.49400000  0.36380000  1
  Si  Si37  1  0.59900000  0.99400000  0.86380000  1
  Si  Si38  1  0.00600000  0.63620000  0.59900000  1
  Si  Si39  1  0.50600000  0.13620000  0.09900000  1
  Si  Si40  1  0.86380000  0.40100000  0.50600000  1
  Si  Si41  1  0.36380000  0.90100000  0.00600000  1
  Si  Si42  1  0.09900000  0.99400000  0.63620000  1
  Si  Si43  1  0.59900000  0.49400000  0.13620000  1
  Si  Si44  1  0.00600000  0.13620000  0.40100000  1
  Si  Si45  1  0.50600000  0.63620000  0.90100000  1
  Si  Si46  1  0.86380000  0.90100000  0.49400000  1
  Si  Si47  1  0.36380000  0.40100000  0.99400000  1
  Si  Si48  1  0.74400000  0.65100000  0.88620000  1
  Si  Si49  1  0.24400000  0.15100000  0.38620000  1
  Si  Si50  1  0.88620000  0.74400000  0.65100000  1
  Si  Si51  1  0.38620000  0.24400000  0.15100000  1
  Si  Si52  1  0.65100000  0.88620000  0.74400000  1
  Si  Si53  1  0.15100000  0.38620000  0.24400000  1
  Si  Si54  1  0.24400000  0.65100000  0.61380000  1
  Si  Si55  1  0.74400000  0.15100000  0.11380000  1
  Si  Si56  1  0.38620000  0.74400000  0.84900000  1
  Si  Si57  1  0.88620000  0.24400000  0.34900000  1
  Si  Si58  1  0.15100000  0.88620000  0.75600000  1
  Si  Si59  1  0.65100000  0.38620000  0.25600000  1
  Si  Si60  1  0.75600000  0.15100000  0.88620000  1
  Si  Si61  1  0.25600000  0.65100000  0.38620000  1
  Si  Si62  1  0.61380000  0.24400000  0.65100000  1
  Si  Si63  1  0.11380000  0.74400000  0.15100000  1
  Si  Si64  1  0.84900000  0.38620000  0.74400000  1
  Si  Si65  1  0.34900000  0.88620000  0.24400000  1
  Si  Si66  1  0.25600000  0.15100000  0.61380000  1
  Si  Si67  1  0.75600000  0.65100000  0.11380000  1
  Si  Si68  1  0.11380000  0.24400000  0.84900000  1
  Si  Si69  1  0.61380000  0.74400000  0.34900000  1
  Si  Si70  1  0.34900000  0.38620000  0.75600000  1
  Si  Si71  1  0.84900000  0.88620000  0.25600000  1
  Si  Si72  1  0.40100000  0.49400000  0.63620000  1
  Si  Si73  1  0.90100000  0.99400000  0.13620000  1
  Si  Si74  1  0.49400000  0.63620000  0.40100000  1
  Si  Si75  1  0.99400000  0.13620000  0.90100000  1
  Si  Si76  1  0.63620000  0.40100000  0.49400000  1
  Si  Si77  1  0.13620000  0.90100000  0.99400000  1
  Si  Si78  1  0.40100000  0.99400000  0.36380000  1
  Si  Si79  1  0.90100000  0.49400000  0.86380000  1
  Si  Si80  1  0.49400000  0.13620000  0.59900000  1
  Si  Si81  1  0.99400000  0.63620000  0.09900000  1
  Si  Si82  1  0.63620000  0.90100000  0.50600000  1
  Si  Si83  1  0.13620000  0.40100000  0.00600000  1
  Si  Si84  1  0.90100000  0.50600000  0.63620000  1
  Si  Si85  1  0.40100000  0.00600000  0.13620000  1
  Si  Si86  1  0.99400000  0.36380000  0.40100000  1
  Si  Si87  1  0.49400000  0.86380000  0.90100000  1
  Si  Si88  1  0.13620000  0.59900000  0.49400000  1
  Si  Si89  1  0.63620000  0.09900000  0.99400000  1
  Si  Si90  1  0.90100000  0.00600000  0.36380000  1
  Si  Si91  1  0.40100000  0.50600000  0.86380000  1
  Si  Si92  1  0.99400000  0.86380000  0.59900000  1
  Si  Si93  1  0.49400000  0.36380000  0.09900000  1
  Si  Si94  1  0.13620000  0.09900000  0.50600000  1
  Si  Si95  1  0.63620000  0.59900000  0.00600000  1
