# generated using pymatgen
data_SiO4
_symmetry_space_group_name_H-M   'P 1'
_cell_length_a   17.25200000
_cell_length_b   17.25200000
_cell_length_c   17.25200000
_cell_angle_alpha   90.00000000
_cell_angle_beta   90.00000000
_cell_angle_gamma   90.00000000
_symmetry_Int_Tables_number   1
_chemical_formula_structural   SiO4
_chemical_formula_sum   'Si1 O4'
_cell_volume   5134.73870701
_cell_formula_units_Z   1
loop_
 _symmetry_equiv_pos_site_id
 _symmetry_equiv_pos_as_xyz
  1  'x, y, z'
loop_
 _atom_site_type_symbol
 _atom_site_label
 _atom_site_symmetry_multiplicity
 _atom_site_fract_x
 _atom_site_fract_y
 _atom_site_fract_z
 _atom_site_occupancy
  Si  Si0  1  0.25600000  0.34900000  0.11380000  1
  O  O1  1  0.17860000  0.33980000  0.06240000  1
  O  O2  1  0.31240000  0.41020000  0.07140000  1
  O  O3  1  0.30100000  0.26740000  0.12080000  1
  O  O4  1  0.23260000  0.37920000  0.19900000  1
