# generated using pymatgen
data_SiO4
_symmetry_space_group_name_H-M   'P 1'
_cell_length_a   8.62100000
_cell_length_b   8.62100000
_cell_length_c   27.54400000
_cell_angle_alpha   90.00000000
_cell_angle_beta   90.00000000
_cell_angle_gamma   90.00000000
_symmetry_Int_Tables_number   1
_chemical_formula_structural   SiO4
_chemical_formula_sum   'Si1 O4'
_cell_volume   2047.11527970
_cell_formula_units_Z   1
loop_
 _symmetry_equiv_pos_site_id
 _symmetry_equiv_pos_as_xyz
  1  'x, y, z'
loop_
 _atom_site_type_symbol
 _atom_site_label
 _atom_site_symmetry_multiplicity
 _atom_site_fract_x
 _atom_site_fract_y
 _atom_site_fract_z
 _atom_site_occupancy
  Si  Si0  1  0.49590000  0.18200000  0.68120000  1
  O  O1  1  0.55070000  0.16750000  0.62560000  1
  O  O2  1  0.64090000  0.14350000  0.71620000  1
  O  O3  1  0.43770000  0.35640000  0.69160000  1
  O  O4  1  0.35640000  0.06230000  0.69160000  1
