# generated using pymatgen
data_O2
_symmetry_space_group_name_H-M   'P 1'
_cell_length_a   8.62100000
_cell_length_b   8.62100000
_cell_length_c   27.54400000
_cell_angle_alpha   90.00000000
_cell_angle_beta   90.00000000
_cell_angle_gamma   90.00000000
_symmetry_Int_Tables_number   1
_chemical_formula_structural   O2
_chemical_formula_sum   O80
_cell_volume   2047.11527970
_cell_formula_units_Z   40
loop_
 _symmetry_equiv_pos_site_id
 _symmetry_equiv_pos_as_xyz
  1  'x, y, z'
loop_
 _atom_site_type_symbol
 _atom_site_label
 _atom_site_symmetry_multiplicity
 _atom_site_fract_x
 _atom_site_fract_y
 _atom_site_fract_z
 _atom_site_occupancy
  O  O0  1  0.13870000  0.85370000  0.03400000  1
  O  O1  1  0.64630000  0.13870000  0.03400000  1
  O  O2  1  0.36130000  0.64630000  0.03400000  1
  O  O3  1  0.85370000  0.36130000  0.03400000  1
  O  O4  1  0.86130000  0.35370000  0.53400000  1
  O  O5  1  0.35370000  0.63870000  0.53400000  1
  O  O6  1  0.63870000  0.14630000  0.53400000  1
  O  O7  1  0.14630000  0.86130000  0.53400000  1
  O  O8  1  0.86130000  0.14630000  0.96600000  1
  O  O9  1  0.35370000  0.86130000  0.96600000  1
  O  O10  1  0.63870000  0.35370000  0.96600000  1
  O  O11  1  0.14630000  0.63870000  0.96600000  1
  O  O12  1  0.13870000  0.64630000  0.46600000  1
  O  O13  1  0.64630000  0.36130000  0.46600000  1
  O  O14  1  0.36130000  0.85370000  0.46600000  1
  O  O15  1  0.85370000  0.13870000  0.46600000  1
  O  O16  1  0.93740000  0.64290000  0.05960000  1
  O  O17  1  0.85710000  0.93740000  0.05960000  1
  O  O18  1  0.56260000  0.85710000  0.05960000  1
  O  O19  1  0.64290000  0.56260000  0.05960000  1
  O  O20  1  0.06260000  0.14290000  0.55960000  1
  O  O21  1  0.14290000  0.43740000  0.55960000  1
  O  O22  1  0.43740000  0.35710000  0.55960000  1
  O  O23  1  0.35710000  0.06260000  0.55960000  1
  O  O24  1  0.06260000  0.35710000  0.94040000  1
  O  O25  1  0.14290000  0.06260000  0.94040000  1
  O  O26  1  0.43740000  0.14290000  0.94040000  1
  O  O27  1  0.35710000  0.43740000  0.94040000  1
  O  O28  1  0.93740000  0.85710000  0.44040000  1
  O  O29  1  0.85710000  0.56260000  0.44040000  1
  O  O30  1  0.56260000  0.64290000  0.44040000  1
  O  O31  1  0.64290000  0.93740000  0.44040000  1
  O  O32  1  0.05070000  0.83250000  0.12560000  1
  O  O33  1  0.66750000  0.05070000  0.12560000  1
  O  O34  1  0.44930000  0.66750000  0.12560000  1
  O  O35  1  0.83250000  0.44930000  0.12560000  1
  O  O36  1  0.94930000  0.33250000  0.62560000  1
  O  O37  1  0.33250000  0.55070000  0.62560000  1
  O  O38  1  0.55070000  0.16750000  0.62560000  1
  O  O39  1  0.16750000  0.94930000  0.62560000  1
  O  O40  1  0.94930000  0.16750000  0.87440000  1
  O  O41  1  0.33250000  0.94930000  0.87440000  1
  O  O42  1  0.55070000  0.33250000  0.87440000  1
  O  O43  1  0.16750000  0.55070000  0.87440000  1
  O  O44  1  0.05070000  0.66750000  0.37440000  1
  O  O45  1  0.66750000  0.44930000  0.37440000  1
  O  O46  1  0.44930000  0.83250000  0.37440000  1
  O  O47  1  0.83250000  0.05070000  0.37440000  1
  O  O48  1  0.35910000  0.85650000  0.28380000  1
  O  O49  1  0.64350000  0.35910000  0.28380000  1
  O  O50  1  0.14090000  0.64350000  0.28380000  1
  O  O51  1  0.85650000  0.14090000  0.28380000  1
  O  O52  1  0.64090000  0.35650000  0.78380000  1
  O  O53  1  0.35650000  0.85910000  0.78380000  1
  O  O54  1  0.85910000  0.14350000  0.78380000  1
  O  O55  1  0.14350000  0.64090000  0.78380000  1
  O  O56  1  0.64090000  0.14350000  0.71620000  1
  O  O57  1  0.35650000  0.64090000  0.71620000  1
  O  O58  1  0.85910000  0.35650000  0.71620000  1
  O  O59  1  0.14350000  0.85910000  0.71620000  1
  O  O60  1  0.35910000  0.64350000  0.21620000  1
  O  O61  1  0.64350000  0.14090000  0.21620000  1
  O  O62  1  0.14090000  0.85650000  0.21620000  1
  O  O63  1  0.85650000  0.35910000  0.21620000  1
  O  O64  1  0.93770000  0.64360000  0.19160000  1
  O  O65  1  0.85640000  0.93770000  0.19160000  1
  O  O66  1  0.56230000  0.85640000  0.19160000  1
  O  O67  1  0.64360000  0.56230000  0.19160000  1
  O  O68  1  0.06230000  0.14360000  0.69160000  1
  O  O69  1  0.14360000  0.43770000  0.69160000  1
  O  O70  1  0.43770000  0.35640000  0.69160000  1
  O  O71  1  0.35640000  0.06230000  0.69160000  1
  O  O72  1  0.06230000  0.35640000  0.80840000  1
  O  O73  1  0.14360000  0.06230000  0.80840000  1
  O  O74  1  0.43770000  0.14360000  0.80840000  1
  O  O75  1  0.35640000  0.43770000  0.80840000  1
  O  O76  1  0.93770000  0.85640000  0.30840000  1
  O  O77  1  0.85640000  0.56230000  0.30840000  1
  O  O78  1  0.56230000  0.64360000  0.30840000  1
  O  O79  1  0.64360000  0.93770000  0.30840000  1
