# generated using pymatgen
data_Si
_symmetry_space_group_name_H-M   'P 1'
_cell_length_a   22.30500000
_cell_length_b   13.56700000
_cell_length_c   6.97200000
_cell_angle_alpha   90.00000000
_cell_angle_beta   90.00000000
_cell_angle_gamma   90.00000000
_symmetry_Int_Tables_number   1
_chemical_formula_structural   Si
_chemical_formula_sum   Si32
_cell_volume   2109.81041082
_cell_formula_units_Z   32
loop_
 _symmetry_equiv_pos_site_id
 _symmetry_equiv_pos_as_xyz
  1  'x, y, z'
loop_
 _atom_site_type_symbol
 _atom_site_label
 _atom_site_symmetry_multiplicity
 _atom_site_fract_x
 _atom_site_fract_y
 _atom_site_fract_z
 _atom_site_occupancy
  Si  Si0  1  0.08870000  0.13760000  0.44080000  1
  Si  Si1  1  0.41130000  0.13760000  0.44080000  1
  Si  Si2  1  0.08870000  0.36240000  0.44080000  1
  Si  Si3  1  0.41130000  0.36240000  0.44080000  1
  Si  Si4  1  0.91130000  0.86240000  0.55920000  1
  Si  Si5  1  0.58870000  0.86240000  0.55920000  1
  Si  Si6  1  0.91130000  0.63760000  0.55920000  1
  Si  Si7  1  0.58870000  0.63760000  0.55920000  1
  Si  Si8  1  0.18090000  0.13640000  0.10980000  1
  Si  Si9  1  0.31910000  0.13640000  0.10980000  1
  Si  Si10  1  0.18090000  0.36360000  0.10980000  1
  Si  Si11  1  0.31910000  0.36360000  0.10980000  1
  Si  Si12  1  0.81910000  0.86360000  0.89020000  1
  Si  Si13  1  0.68090000  0.86360000  0.89020000  1
  Si  Si14  1  0.81910000  0.63640000  0.89020000  1
  Si  Si15  1  0.68090000  0.63640000  0.89020000  1
  Si  Si16  1  0.99280000  0.13710000  0.12160000  1
  Si  Si17  1  0.50720000  0.13710000  0.12160000  1
  Si  Si18  1  0.99280000  0.36290000  0.12160000  1
  Si  Si19  1  0.50720000  0.36290000  0.12160000  1
  Si  Si20  1  0.00720000  0.86290000  0.87840000  1
  Si  Si21  1  0.49280000  0.86290000  0.87840000  1
  Si  Si22  1  0.00720000  0.63710000  0.87840000  1
  Si  Si23  1  0.49280000  0.63710000  0.87840000  1
  Si  Si24  1  0.08440000  0.04710000  0.85010000  1
  Si  Si25  1  0.41560000  0.04710000  0.85010000  1
  Si  Si26  1  0.08440000  0.45290000  0.85010000  1
  Si  Si27  1  0.41560000  0.45290000  0.85010000  1
  Si  Si28  1  0.91560000  0.95290000  0.14990000  1
  Si  Si29  1  0.58440000  0.95290000  0.14990000  1
  Si  Si30  1  0.91560000  0.54710000  0.14990000  1
  Si  Si31  1  0.58440000  0.54710000  0.14990000  1
