# generated using pymatgen
data_O2
_symmetry_space_group_name_H-M   'P 1'
_cell_length_a   22.30500000
_cell_length_b   13.56700000
_cell_length_c   6.97200000
_cell_angle_alpha   90.00000000
_cell_angle_beta   90.00000000
_cell_angle_gamma   90.00000000
_symmetry_Int_Tables_number   1
_chemical_formula_structural   O2
_chemical_formula_sum   O64
_cell_volume   2109.81041082
_cell_formula_units_Z   32
loop_
 _symmetry_equiv_pos_site_id
 _symmetry_equiv_pos_as_xyz
  1  'x, y, z'
loop_
 _atom_site_type_symbol
 _atom_site_label
 _atom_site_symmetry_multiplicity
 _atom_site_fract_x
 _atom_site_fract_y
 _atom_site_fract_z
 _atom_site_occupancy
  O  O0  1  0.14850000  0.12370000  0.31460000  1
  O  O1  1  0.35150000  0.12370000  0.31460000  1
  O  O2  1  0.14850000  0.37630000  0.31460000  1
  O  O3  1  0.35150000  0.37630000  0.31460000  1
  O  O4  1  0.85150000  0.87630000  0.68540000  1
  O  O5  1  0.64850000  0.87630000  0.68540000  1
  O  O6  1  0.85150000  0.62370000  0.68540000  1
  O  O7  1  0.64850000  0.62370000  0.68540000  1
  O  O8  1  0.03080000  0.11230000  0.31180000  1
  O  O9  1  0.46920000  0.11230000  0.31180000  1
  O  O10  1  0.03080000  0.38770000  0.31180000  1
  O  O11  1  0.46920000  0.38770000  0.31180000  1
  O  O12  1  0.96920000  0.88770000  0.68820000  1
  O  O13  1  0.53080000  0.88770000  0.68820000  1
  O  O14  1  0.96920000  0.61230000  0.68820000  1
  O  O15  1  0.53080000  0.61230000  0.68820000  1
  O  O16  1  0.09090000  0.06460000  0.62270000  1
  O  O17  1  0.40910000  0.06460000  0.62270000  1
  O  O18  1  0.09090000  0.43540000  0.62270000  1
  O  O19  1  0.40910000  0.43540000  0.62270000  1
  O  O20  1  0.90910000  0.93540000  0.37730000  1
  O  O21  1  0.59090000  0.93540000  0.37730000  1
  O  O22  1  0.90910000  0.56460000  0.37730000  1
  O  O23  1  0.59090000  0.56460000  0.37730000  1
  O  O24  1  0.08450000  0.25000000  0.51390000  1
  O  O25  1  0.41550000  0.25000000  0.51390000  1
  O  O26  1  0.91550000  0.75000000  0.48610000  1
  O  O27  1  0.58450000  0.75000000  0.48610000  1
  O  O28  1  0.14760000  0.06840000  0.95330000  1
  O  O29  1  0.35240000  0.06840000  0.95330000  1
  O  O30  1  0.14760000  0.43160000  0.95330000  1
  O  O31  1  0.35240000  0.43160000  0.95330000  1
  O  O32  1  0.85240000  0.93160000  0.04670000  1
  O  O33  1  0.64760000  0.93160000  0.04670000  1
  O  O34  1  0.85240000  0.56840000  0.04670000  1
  O  O35  1  0.64760000  0.56840000  0.04670000  1
  O  O36  1  0.17750000  0.25000000  0.04390000  1
  O  O37  1  0.32250000  0.25000000  0.04390000  1
  O  O38  1  0.82250000  0.75000000  0.95610000  1
  O  O39  1  0.67750000  0.75000000  0.95610000  1
  O  O40  1  0.25000000  0.10330000  0.12710000  1
  O  O41  1  0.25000000  0.39670000  0.12710000  1
  O  O42  1  0.75000000  0.89670000  0.87290000  1
  O  O43  1  0.75000000  0.60330000  0.87290000  1
  O  O44  1  0.97080000  0.25000000  0.12870000  1
  O  O45  1  0.52920000  0.25000000  0.12870000  1
  O  O46  1  0.02920000  0.75000000  0.87130000  1
  O  O47  1  0.47080000  0.75000000  0.87130000  1
  O  O48  1  0.03420000  0.12040000  0.93530000  1
  O  O49  1  0.46580000  0.12040000  0.93530000  1
  O  O50  1  0.03420000  0.37960000  0.93530000  1
  O  O51  1  0.46580000  0.37960000  0.93530000  1
  O  O52  1  0.96580000  0.87960000  0.06470000  1
  O  O53  1  0.53420000  0.87960000  0.06470000  1
  O  O54  1  0.96580000  0.62040000  0.06470000  1
  O  O55  1  0.53420000  0.62040000  0.06470000  1
  O  O56  1  0.93540000  0.06530000  0.11060000  1
  O  O57  1  0.56460000  0.06530000  0.11060000  1
  O  O58  1  0.93540000  0.43470000  0.11060000  1
  O  O59  1  0.56460000  0.43470000  0.11060000  1
  O  O60  1  0.06460000  0.93470000  0.88940000  1
  O  O61  1  0.43540000  0.93470000  0.88940000  1
  O  O62  1  0.06460000  0.56530000  0.88940000  1
  O  O63  1  0.43540000  0.56530000  0.88940000  1
