# generated using pymatgen
data_SiO4
_symmetry_space_group_name_H-M   'P 1'
_cell_length_a   22.30500000
_cell_length_b   13.56700000
_cell_length_c   6.97200000
_cell_angle_alpha   90.00000000
_cell_angle_beta   90.00000000
_cell_angle_gamma   90.00000000
_symmetry_Int_Tables_number   1
_chemical_formula_structural   SiO4
_chemical_formula_sum   'Si1 O4'
_cell_volume   2109.81041082
_cell_formula_units_Z   1
loop_
 _symmetry_equiv_pos_site_id
 _symmetry_equiv_pos_as_xyz
  1  'x, y, z'
loop_
 _atom_site_type_symbol
 _atom_site_label
 _atom_site_symmetry_multiplicity
 _atom_site_fract_x
 _atom_site_fract_y
 _atom_site_fract_z
 _atom_site_occupancy
  Si  Si0  1  0.18090000  0.13640000  0.10980000  1
  O  O1  1  0.14850000  0.12370000  0.31460000  1
  O  O2  1  0.14760000  0.06840000  -0.04670000  1
  O  O3  1  0.17750000  0.25000000  0.04390000  1
  O  O4  1  0.25000000  0.10330000  0.12710000  1
