# generated using pymatgen
data_SiO4
_symmetry_space_group_name_H-M   'P 1'
_cell_length_a   22.30500000
_cell_length_b   13.56700000
_cell_length_c   6.97200000
_cell_angle_alpha   90.00000000
_cell_angle_beta   90.00000000
_cell_angle_gamma   90.00000000
_symmetry_Int_Tables_number   1
_chemical_formula_structural   SiO4
_chemical_formula_sum   'Si1 O4'
_cell_volume   2109.81041082
_cell_formula_units_Z   1
loop_
 _symmetry_equiv_pos_site_id
 _symmetry_equiv_pos_as_xyz
  1  'x, y, z'
loop_
 _atom_site_type_symbol
 _atom_site_label
 _atom_site_symmetry_multiplicity
 _atom_site_fract_x
 _atom_site_fract_y
 _atom_site_fract_z
 _atom_site_occupancy
  Si  Si0  1  0.00720000  0.86290000  0.87840000  1
  O  O1  1  -0.03080000  0.88770000  0.68820000  1
  O  O2  1  0.02920000  0.75000000  0.87130000  1
  O  O3  1  -0.03420000  0.87960000  1.06470000  1
  O  O4  1  0.06460000  0.93470000  0.88940000  1
