# generated using pymatgen
data_O2
_symmetry_space_group_name_H-M   'P 1'
_cell_length_a   8.67400000
_cell_length_b   8.67400000
_cell_length_c   13.91900000
_cell_angle_alpha   90.00000000
_cell_angle_beta   90.00000000
_cell_angle_gamma   90.00000000
_symmetry_Int_Tables_number   1
_chemical_formula_structural   O2
_chemical_formula_sum   O40
_cell_volume   1047.24156364
_cell_formula_units_Z   20
loop_
 _symmetry_equiv_pos_site_id
 _symmetry_equiv_pos_as_xyz
  1  'x, y, z'
loop_
 _atom_site_type_symbol
 _atom_site_label
 _atom_site_symmetry_multiplicity
 _atom_site_fract_x
 _atom_site_fract_y
 _atom_site_fract_z
 _atom_site_occupancy
  O  O0  1  0.10890000  0.60740000  0.31780000  1
  O  O1  1  0.39260000  0.10890000  0.31780000  1
  O  O2  1  0.89110000  0.39260000  0.31780000  1
  O  O3  1  0.60740000  0.89110000  0.31780000  1
  O  O4  1  0.89110000  0.60740000  0.81780000  1
  O  O5  1  0.60740000  0.10890000  0.81780000  1
  O  O6  1  0.10890000  0.39260000  0.81780000  1
  O  O7  1  0.39260000  0.89110000  0.81780000  1
  O  O8  1  0.89110000  0.39260000  0.68220000  1
  O  O9  1  0.60740000  0.89110000  0.68220000  1
  O  O10  1  0.10890000  0.60740000  0.68220000  1
  O  O11  1  0.39260000  0.10890000  0.68220000  1
  O  O12  1  0.10890000  0.39260000  0.18220000  1
  O  O13  1  0.39260000  0.89110000  0.18220000  1
  O  O14  1  0.89110000  0.60740000  0.18220000  1
  O  O15  1  0.60740000  0.10890000  0.18220000  1
  O  O16  1  0.19850000  0.41550000  0.00000000  1
  O  O17  1  0.58450000  0.19850000  0.00000000  1
  O  O18  1  0.80150000  0.58450000  0.00000000  1
  O  O19  1  0.41550000  0.80150000  0.00000000  1
  O  O20  1  0.80150000  0.41550000  0.50000000  1
  O  O21  1  0.41550000  0.19850000  0.50000000  1
  O  O22  1  0.19850000  0.58450000  0.50000000  1
  O  O23  1  0.58450000  0.80150000  0.50000000  1
  O  O24  1  0.39380000  0.31100000  0.13210000  1
  O  O25  1  0.68900000  0.39380000  0.13210000  1
  O  O26  1  0.60620000  0.68900000  0.13210000  1
  O  O27  1  0.31100000  0.60620000  0.13210000  1
  O  O28  1  0.60620000  0.31100000  0.63210000  1
  O  O29  1  0.31100000  0.39380000  0.63210000  1
  O  O30  1  0.39380000  0.68900000  0.63210000  1
  O  O31  1  0.68900000  0.60620000  0.63210000  1
  O  O32  1  0.60620000  0.68900000  0.86790000  1
  O  O33  1  0.31100000  0.60620000  0.86790000  1
  O  O34  1  0.39380000  0.31100000  0.86790000  1
  O  O35  1  0.68900000  0.39380000  0.86790000  1
  O  O36  1  0.39380000  0.68900000  0.36790000  1
  O  O37  1  0.68900000  0.60620000  0.36790000  1
  O  O38  1  0.60620000  0.31100000  0.36790000  1
  O  O39  1  0.31100000  0.39380000  0.36790000  1
