# generated using pymatgen
data_O2
_symmetry_space_group_name_H-M   'P 1'
_cell_length_a   22.68400000
_cell_length_b   13.37300000
_cell_length_c   12.55300000
_cell_angle_alpha   90.00000000
_cell_angle_beta   69.47900000
_cell_angle_gamma   90.00000000
_symmetry_Int_Tables_number   1
_chemical_formula_structural   O2
_chemical_formula_sum   O112
_cell_volume   3566.35105308
_cell_formula_units_Z   56
loop_
 _symmetry_equiv_pos_site_id
 _symmetry_equiv_pos_as_xyz
  1  'x, y, z'
loop_
 _atom_site_type_symbol
 _atom_site_label
 _atom_site_symmetry_multiplicity
 _atom_site_fract_x
 _atom_site_fract_y
 _atom_site_fract_z
 _atom_site_occupancy
  O  O0  1  0.00000000  0.15060000  0.50000000  1
  O  O1  1  0.50000000  0.65060000  0.50000000  1
  O  O2  1  0.00000000  0.84940000  0.50000000  1
  O  O3  1  0.50000000  0.34940000  0.50000000  1
  O  O4  1  0.07960000  0.00000000  0.44850000  1
  O  O5  1  0.57960000  0.50000000  0.44850000  1
  O  O6  1  0.92040000  0.00000000  0.55150000  1
  O  O7  1  0.42040000  0.50000000  0.55150000  1
  O  O8  1  0.11960000  0.18180000  0.38230000  1
  O  O9  1  0.61960000  0.68180000  0.38230000  1
  O  O10  1  0.88040000  0.18180000  0.61770000  1
  O  O11  1  0.38040000  0.68180000  0.61770000  1
  O  O12  1  0.88040000  0.81820000  0.61770000  1
  O  O13  1  0.38040000  0.31820000  0.61770000  1
  O  O14  1  0.11960000  0.81820000  0.38230000  1
  O  O15  1  0.61960000  0.31820000  0.38230000  1
  O  O16  1  0.08460000  0.13410000  0.59840000  1
  O  O17  1  0.58460000  0.63410000  0.59840000  1
  O  O18  1  0.91540000  0.13410000  0.40160000  1
  O  O19  1  0.41540000  0.63410000  0.40160000  1
  O  O20  1  0.91540000  0.86590000  0.40160000  1
  O  O21  1  0.41540000  0.36590000  0.40160000  1
  O  O22  1  0.08460000  0.86590000  0.59840000  1
  O  O23  1  0.58460000  0.36590000  0.59840000  1
  O  O24  1  0.22190000  0.12920000  0.21290000  1
  O  O25  1  0.72190000  0.62920000  0.21290000  1
  O  O26  1  0.77810000  0.12920000  0.78710000  1
  O  O27  1  0.27810000  0.62920000  0.78710000  1
  O  O28  1  0.77810000  0.87080000  0.78710000  1
  O  O29  1  0.27810000  0.37080000  0.78710000  1
  O  O30  1  0.22190000  0.87080000  0.21290000  1
  O  O31  1  0.72190000  0.37080000  0.21290000  1
  O  O32  1  0.18050000  0.31390000  0.22770000  1
  O  O33  1  0.68050000  0.81390000  0.22770000  1
  O  O34  1  0.81950000  0.31390000  0.77230000  1
  O  O35  1  0.31950000  0.81390000  0.77230000  1
  O  O36  1  0.81950000  0.68610000  0.77230000  1
  O  O37  1  0.31950000  0.18610000  0.77230000  1
  O  O38  1  0.18050000  0.68610000  0.22770000  1
  O  O39  1  0.68050000  0.18610000  0.22770000  1
  O  O40  1  0.11770000  0.16900000  0.17450000  1
  O  O41  1  0.61770000  0.66900000  0.17450000  1
  O  O42  1  0.88230000  0.16900000  0.82550000  1
  O  O43  1  0.38230000  0.66900000  0.82550000  1
  O  O44  1  0.88230000  0.83100000  0.82550000  1
  O  O45  1  0.38230000  0.33100000  0.82550000  1
  O  O46  1  0.11770000  0.83100000  0.17450000  1
  O  O47  1  0.61770000  0.33100000  0.17450000  1
  O  O48  1  0.11770000  0.18670000  0.77150000  1
  O  O49  1  0.61770000  0.68670000  0.77150000  1
  O  O50  1  0.88230000  0.18670000  0.22850000  1
  O  O51  1  0.38230000  0.68670000  0.22850000  1
  O  O52  1  0.88230000  0.81330000  0.22850000  1
  O  O53  1  0.38230000  0.31330000  0.22850000  1
  O  O54  1  0.11770000  0.81330000  0.77150000  1
  O  O55  1  0.61770000  0.31330000  0.77150000  1
  O  O56  1  0.00020000  0.13880000  0.80510000  1
  O  O57  1  0.50020000  0.63880000  0.80510000  1
  O  O58  1  0.99980000  0.13880000  0.19490000  1
  O  O59  1  0.49980000  0.63880000  0.19490000  1
  O  O60  1  0.99980000  0.86120000  0.19490000  1
  O  O61  1  0.49980000  0.36120000  0.19490000  1
  O  O62  1  0.00020000  0.86120000  0.80510000  1
  O  O63  1  0.50020000  0.36120000  0.80510000  1
  O  O64  1  0.08780000  0.00000000  0.74950000  1
  O  O65  1  0.58780000  0.50000000  0.74950000  1
  O  O66  1  0.91220000  0.00000000  0.25050000  1
  O  O67  1  0.41220000  0.50000000  0.25050000  1
  O  O68  1  0.30700000  0.00000000  0.09410000  1
  O  O69  1  0.80700000  0.50000000  0.09410000  1
  O  O70  1  0.69300000  0.00000000  0.90590000  1
  O  O71  1  0.19300000  0.50000000  0.90590000  1
  O  O72  1  0.26950000  0.14440000  0.99030000  1
  O  O73  1  0.76950000  0.64440000  0.99030000  1
  O  O74  1  0.73050000  0.14440000  0.00970000  1
  O  O75  1  0.23050000  0.64440000  0.00970000  1
  O  O76  1  0.73050000  0.85560000  0.00970000  1
  O  O77  1  0.23050000  0.35560000  0.00970000  1
  O  O78  1  0.26950000  0.85560000  0.99030000  1
  O  O79  1  0.76950000  0.35560000  0.99030000  1
  O  O80  1  0.33930000  0.18630000  0.11320000  1
  O  O81  1  0.83930000  0.68630000  0.11320000  1
  O  O82  1  0.66070000  0.18630000  0.88680000  1
  O  O83  1  0.16070000  0.68630000  0.88680000  1
  O  O84  1  0.66070000  0.81370000  0.88680000  1
  O  O85  1  0.16070000  0.31370000  0.88680000  1
  O  O86  1  0.33930000  0.81370000  0.11320000  1
  O  O87  1  0.83930000  0.31370000  0.11320000  1
  O  O88  1  0.29280000  0.00000000  0.83900000  1
  O  O89  1  0.79280000  0.50000000  0.83900000  1
  O  O90  1  0.70720000  0.00000000  0.16100000  1
  O  O91  1  0.20720000  0.50000000  0.16100000  1
  O  O92  1  0.20160000  0.12800000  0.85920000  1
  O  O93  1  0.70160000  0.62800000  0.85920000  1
  O  O94  1  0.79840000  0.12800000  0.14080000  1
  O  O95  1  0.29840000  0.62800000  0.14080000  1
  O  O96  1  0.79840000  0.87200000  0.14080000  1
  O  O97  1  0.29840000  0.37200000  0.14080000  1
  O  O98  1  0.20160000  0.87200000  0.85920000  1
  O  O99  1  0.70160000  0.37200000  0.85920000  1
  O  O100  1  0.08500000  0.00000000  0.10350000  1
  O  O101  1  0.58500000  0.50000000  0.10350000  1
  O  O102  1  0.91500000  0.00000000  0.89650000  1
  O  O103  1  0.41500000  0.50000000  0.89650000  1
  O  O104  1  0.08570000  0.16710000  0.99280000  1
  O  O105  1  0.58570000  0.66710000  0.99280000  1
  O  O106  1  0.91430000  0.16710000  0.00720000  1
  O  O107  1  0.41430000  0.66710000  0.00720000  1
  O  O108  1  0.91430000  0.83290000  0.00720000  1
  O  O109  1  0.41430000  0.33290000  0.00720000  1
  O  O110  1  0.08570000  0.83290000  0.99280000  1
  O  O111  1  0.58570000  0.33290000  0.99280000  1
