# generated using pymatgen
data_Si
_symmetry_space_group_name_H-M   'P 1'
_cell_length_a   22.68400000
_cell_length_b   13.37300000
_cell_length_c   12.55300000
_cell_angle_alpha   90.00000000
_cell_angle_beta   69.47900000
_cell_angle_gamma   90.00000000
_symmetry_Int_Tables_number   1
_chemical_formula_structural   Si
_chemical_formula_sum   Si56
_cell_volume   3566.35105308
_cell_formula_units_Z   56
loop_
 _symmetry_equiv_pos_site_id
 _symmetry_equiv_pos_as_xyz
  1  'x, y, z'
loop_
 _atom_site_type_symbol
 _atom_site_label
 _atom_site_symmetry_multiplicity
 _atom_site_fract_x
 _atom_site_fract_y
 _atom_site_fract_z
 _atom_site_occupancy
  Si  Si0  1  0.07090000  0.11650000  0.48250000  1
  Si  Si1  1  0.57090000  0.61650000  0.48250000  1
  Si  Si2  1  0.92910000  0.11650000  0.51750000  1
  Si  Si3  1  0.42910000  0.61650000  0.51750000  1
  Si  Si4  1  0.92910000  0.88350000  0.51750000  1
  Si  Si5  1  0.42910000  0.38350000  0.51750000  1
  Si  Si6  1  0.07090000  0.88350000  0.48250000  1
  Si  Si7  1  0.57090000  0.38350000  0.48250000  1
  Si  Si8  1  0.15980000  0.19830000  0.24960000  1
  Si  Si9  1  0.65980000  0.69830000  0.24960000  1
  Si  Si10  1  0.84020000  0.19830000  0.75040000  1
  Si  Si11  1  0.34020000  0.69830000  0.75040000  1
  Si  Si12  1  0.84020000  0.80170000  0.75040000  1
  Si  Si13  1  0.34020000  0.30170000  0.75040000  1
  Si  Si14  1  0.15980000  0.80170000  0.24960000  1
  Si  Si15  1  0.65980000  0.30170000  0.24960000  1
  Si  Si16  1  0.07250000  0.11490000  0.73100000  1
  Si  Si17  1  0.57250000  0.61490000  0.73100000  1
  Si  Si18  1  0.92750000  0.11490000  0.26900000  1
  Si  Si19  1  0.42750000  0.61490000  0.26900000  1
  Si  Si20  1  0.92750000  0.88510000  0.26900000  1
  Si  Si21  1  0.42750000  0.38510000  0.26900000  1
  Si  Si22  1  0.07250000  0.88510000  0.73100000  1
  Si  Si23  1  0.57250000  0.38510000  0.73100000  1
  Si  Si24  1  0.28450000  0.11480000  0.10260000  1
  Si  Si25  1  0.78450000  0.61480000  0.10260000  1
  Si  Si26  1  0.71550000  0.11480000  0.89740000  1
  Si  Si27  1  0.21550000  0.61480000  0.89740000  1
  Si  Si28  1  0.71550000  0.88520000  0.89740000  1
  Si  Si29  1  0.21550000  0.38520000  0.89740000  1
  Si  Si30  1  0.28450000  0.88520000  0.10260000  1
  Si  Si31  1  0.78450000  0.38520000  0.10260000  1
  Si  Si32  1  0.27080000  0.11460000  0.86530000  1
  Si  Si33  1  0.77080000  0.61460000  0.86530000  1
  Si  Si34  1  0.72920000  0.11460000  0.13470000  1
  Si  Si35  1  0.22920000  0.61460000  0.13470000  1
  Si  Si36  1  0.72920000  0.88540000  0.13470000  1
  Si  Si37  1  0.22920000  0.38540000  0.13470000  1
  Si  Si38  1  0.27080000  0.88540000  0.86530000  1
  Si  Si39  1  0.77080000  0.38540000  0.86530000  1
  Si  Si40  1  0.07190000  0.11840000  0.11660000  1
  Si  Si41  1  0.57190000  0.61840000  0.11660000  1
  Si  Si42  1  0.92810000  0.11840000  0.88340000  1
  Si  Si43  1  0.42810000  0.61840000  0.88340000  1
  Si  Si44  1  0.92810000  0.88160000  0.88340000  1
  Si  Si45  1  0.42810000  0.38160000  0.88340000  1
  Si  Si46  1  0.07190000  0.88160000  0.11660000  1
  Si  Si47  1  0.57190000  0.38160000  0.11660000  1
  Si  Si48  1  0.14150000  0.19900000  0.87760000  1
  Si  Si49  1  0.64150000  0.69900000  0.87760000  1
  Si  Si50  1  0.85850000  0.19900000  0.12240000  1
  Si  Si51  1  0.35850000  0.69900000  0.12240000  1
  Si  Si52  1  0.85850000  0.80100000  0.12240000  1
  Si  Si53  1  0.35850000  0.30100000  0.12240000  1
  Si  Si54  1  0.14150000  0.80100000  0.87760000  1
  Si  Si55  1  0.64150000  0.30100000  0.87760000  1
