# generated using pymatgen
data_SiO4
_symmetry_space_group_name_H-M   'P 1'
_cell_length_a   22.68400000
_cell_length_b   13.37300000
_cell_length_c   12.55300000
_cell_angle_alpha   90.00000000
_cell_angle_beta   69.47900000
_cell_angle_gamma   90.00000000
_symmetry_Int_Tables_number   1
_chemical_formula_structural   SiO4
_chemical_formula_sum   'Si1 O4'
_cell_volume   3566.35105308
_cell_formula_units_Z   1
loop_
 _symmetry_equiv_pos_site_id
 _symmetry_equiv_pos_as_xyz
  1  'x, y, z'
loop_
 _atom_site_type_symbol
 _atom_site_label
 _atom_site_symmetry_multiplicity
 _atom_site_fract_x
 _atom_site_fract_y
 _atom_site_fract_z
 _atom_site_occupancy
  Si  Si0  1  0.07250000  0.11490000  0.73100000  1
  O  O1  1  0.08460000  0.13410000  0.59840000  1
  O  O2  1  0.11770000  0.18670000  0.77150000  1
  O  O3  1  0.00020000  0.13880000  0.80510000  1
  O  O4  1  0.08780000  0.00000000  0.74950000  1
