# generated using pymatgen
data_Si
_symmetry_space_group_name_H-M   'P 1'
_cell_length_a   9.80100000
_cell_length_b   9.80100000
_cell_length_c   10.15800000
_cell_angle_alpha   90.00000000
_cell_angle_beta   90.00000000
_cell_angle_gamma   90.00000000
_symmetry_Int_Tables_number   1
_chemical_formula_structural   Si
_chemical_formula_sum   Si16
_cell_volume   975.77342696
_cell_formula_units_Z   16
loop_
 _symmetry_equiv_pos_site_id
 _symmetry_equiv_pos_as_xyz
  1  'x, y, z'
loop_
 _atom_site_type_symbol
 _atom_site_label
 _atom_site_symmetry_multiplicity
 _atom_site_fract_x
 _atom_site_fract_y
 _atom_site_fract_z
 _atom_site_occupancy
  Si  Si0  1  0.15860000  0.59140000  0.12500000  1
  Si  Si1  1  0.65860000  0.09140000  0.62500000  1
  Si  Si2  1  0.15860000  0.40860000  0.87500000  1
  Si  Si3  1  0.65860000  0.90860000  0.37500000  1
  Si  Si4  1  0.34140000  0.40860000  0.62500000  1
  Si  Si5  1  0.84140000  0.90860000  0.12500000  1
  Si  Si6  1  0.34140000  0.59140000  0.37500000  1
  Si  Si7  1  0.84140000  0.09140000  0.87500000  1
  Si  Si8  1  0.84140000  0.59140000  0.12500000  1
  Si  Si9  1  0.34140000  0.09140000  0.62500000  1
  Si  Si10  1  0.84140000  0.40860000  0.87500000  1
  Si  Si11  1  0.34140000  0.90860000  0.37500000  1
  Si  Si12  1  0.65860000  0.40860000  0.62500000  1
  Si  Si13  1  0.15860000  0.90860000  0.12500000  1
  Si  Si14  1  0.65860000  0.59140000  0.37500000  1
  Si  Si15  1  0.15860000  0.09140000  0.87500000  1
