# generated using pymatgen
data_SiO4
_symmetry_space_group_name_H-M   'P 1'
_cell_length_a   12.87100000
_cell_length_b   12.87100000
_cell_length_c   30.57700000
_cell_angle_alpha   90.00000000
_cell_angle_beta   90.00000000
_cell_angle_gamma   120.00000000
_symmetry_Int_Tables_number   1
_chemical_formula_structural   SiO4
_chemical_formula_sum   'Si1 O4'
_cell_volume   4386.82273498
_cell_formula_units_Z   1
loop_
 _symmetry_equiv_pos_site_id
 _symmetry_equiv_pos_as_xyz
  1  'x, y, z'
loop_
 _atom_site_type_symbol
 _atom_site_label
 _atom_site_symmetry_multiplicity
 _atom_site_fract_x
 _atom_site_fract_y
 _atom_site_fract_z
 _atom_site_occupancy
  Si  Si0  1  0.99946667  0.76223333  0.55023333  1
  O  O1  1  0.96296667  0.64773333  0.58113333  1
  O  O2  1  0.99996667  0.72543333  0.50003333  1
  O  O3  1  1.13076667  0.86913333  0.56353333  1
  O  O4  1  0.90316667  0.80623333  0.55633333  1
