# generated using pymatgen
data_Si
_symmetry_space_group_name_H-M   'P 1'
_cell_length_a   12.87100000
_cell_length_b   12.87100000
_cell_length_c   30.57700000
_cell_angle_alpha   90.00000000
_cell_angle_beta   90.00000000
_cell_angle_gamma   120.00000000
_symmetry_Int_Tables_number   1
_chemical_formula_structural   Si
_chemical_formula_sum   Si72
_cell_volume   4386.82273498
_cell_formula_units_Z   72
loop_
 _symmetry_equiv_pos_site_id
 _symmetry_equiv_pos_as_xyz
  1  'x, y, z'
loop_
 _atom_site_type_symbol
 _atom_site_label
 _atom_site_symmetry_multiplicity
 _atom_site_fract_x
 _atom_site_fract_y
 _atom_site_fract_z
 _atom_site_occupancy
  Si  Si0  1  0.75460000  0.75740000  0.29330000  1
  Si  Si1  1  0.42126667  0.09073333  0.62663333  1
  Si  Si2  1  0.08793333  0.42406667  0.95996667  1
  Si  Si3  1  0.24260000  0.99720000  0.29330000  1
  Si  Si4  1  0.90926667  0.33053333  0.62663333  1
  Si  Si5  1  0.57593333  0.66386667  0.95996667  1
  Si  Si6  1  0.00280000  0.24540000  0.29330000  1
  Si  Si7  1  0.66946667  0.57873333  0.62663333  1
  Si  Si8  1  0.33613333  0.91206667  0.95996667  1
  Si  Si9  1  0.24260000  0.24540000  0.29330000  1
  Si  Si10  1  0.90926667  0.57873333  0.62663333  1
  Si  Si11  1  0.57593333  0.91206667  0.95996667  1
  Si  Si12  1  0.00280000  0.75740000  0.29330000  1
  Si  Si13  1  0.66946667  0.09073333  0.62663333  1
  Si  Si14  1  0.33613333  0.42406667  0.95996667  1
  Si  Si15  1  0.75460000  0.99720000  0.29330000  1
  Si  Si16  1  0.42126667  0.33053333  0.62663333  1
  Si  Si17  1  0.08793333  0.66386667  0.95996667  1
  Si  Si18  1  0.24540000  0.24260000  0.70670000  1
  Si  Si19  1  0.91206667  0.57593333  0.04003333  1
  Si  Si20  1  0.57873333  0.90926667  0.37336667  1
  Si  Si21  1  0.75740000  0.00280000  0.70670000  1
  Si  Si22  1  0.42406667  0.33613333  0.04003333  1
  Si  Si23  1  0.09073333  0.66946667  0.37336667  1
  Si  Si24  1  0.99720000  0.75460000  0.70670000  1
  Si  Si25  1  0.66386667  0.08793333  0.04003333  1
  Si  Si26  1  0.33053333  0.42126667  0.37336667  1
  Si  Si27  1  0.75740000  0.75460000  0.70670000  1
  Si  Si28  1  0.42406667  0.08793333  0.04003333  1
  Si  Si29  1  0.09073333  0.42126667  0.37336667  1
  Si  Si30  1  0.99720000  0.24260000  0.70670000  1
  Si  Si31  1  0.66386667  0.57593333  0.04003333  1
  Si  Si32  1  0.33053333  0.90926667  0.37336667  1
  Si  Si33  1  0.24540000  0.00280000  0.70670000  1
  Si  Si34  1  0.91206667  0.33613333  0.04003333  1
  Si  Si35  1  0.57873333  0.66946667  0.37336667  1
  Si  Si36  1  0.57110000  0.90390000  0.21690000  1
  Si  Si37  1  0.23776667  0.23723333  0.55023333  1
  Si  Si38  1  0.90443333  0.57056667  0.88356667  1
  Si  Si39  1  0.09610000  0.66720000  0.21690000  1
  Si  Si40  1  0.76276667  0.00053333  0.55023333  1
  Si  Si41  1  0.42943333  0.33386667  0.88356667  1
  Si  Si42  1  0.33280000  0.42890000  0.21690000  1
  Si  Si43  1  0.99946667  0.76223333  0.55023333  1
  Si  Si44  1  0.66613333  0.09556667  0.88356667  1
  Si  Si45  1  0.09610000  0.42890000  0.21690000  1
  Si  Si46  1  0.76276667  0.76223333  0.55023333  1
  Si  Si47  1  0.42943333  0.09556667  0.88356667  1
  Si  Si48  1  0.33280000  0.90390000  0.21690000  1
  Si  Si49  1  0.99946667  0.23723333  0.55023333  1
  Si  Si50  1  0.66613333  0.57056667  0.88356667  1
  Si  Si51  1  0.57110000  0.66720000  0.21690000  1
  Si  Si52  1  0.23776667  0.00053333  0.55023333  1
  Si  Si53  1  0.90443333  0.33386667  0.88356667  1
  Si  Si54  1  0.42890000  0.09610000  0.78310000  1
  Si  Si55  1  0.09556667  0.42943333  0.11643333  1
  Si  Si56  1  0.76223333  0.76276667  0.44976667  1
  Si  Si57  1  0.90390000  0.33280000  0.78310000  1
  Si  Si58  1  0.57056667  0.66613333  0.11643333  1
  Si  Si59  1  0.23723333  0.99946667  0.44976667  1
  Si  Si60  1  0.66720000  0.57110000  0.78310000  1
  Si  Si61  1  0.33386667  0.90443333  0.11643333  1
  Si  Si62  1  0.00053333  0.23776667  0.44976667  1
  Si  Si63  1  0.90390000  0.57110000  0.78310000  1
  Si  Si64  1  0.57056667  0.90443333  0.11643333  1
  Si  Si65  1  0.23723333  0.23776667  0.44976667  1
  Si  Si66  1  0.66720000  0.09610000  0.78310000  1
  Si  Si67  1  0.33386667  0.42943333  0.11643333  1
  Si  Si68  1  0.00053333  0.76276667  0.44976667  1
  Si  Si69  1  0.42890000  0.33280000  0.78310000  1
  Si  Si70  1  0.09556667  0.66613333  0.11643333  1
  Si  Si71  1  0.76223333  0.99946667  0.44976667  1
