# generated using pymatgen
data_O2
_symmetry_space_group_name_H-M   'P 1'
_cell_length_a   12.87100000
_cell_length_b   12.87100000
_cell_length_c   30.57700000
_cell_angle_alpha   90.00000000
_cell_angle_beta   90.00000000
_cell_angle_gamma   120.00000000
_symmetry_Int_Tables_number   1
_chemical_formula_structural   O2
_chemical_formula_sum   O174
_cell_volume   4386.82273498
_cell_formula_units_Z   87
loop_
 _symmetry_equiv_pos_site_id
 _symmetry_equiv_pos_as_xyz
  1  'x, y, z'
loop_
 _atom_site_type_symbol
 _atom_site_label
 _atom_site_symmetry_multiplicity
 _atom_site_fract_x
 _atom_site_fract_y
 _atom_site_fract_z
 _atom_site_occupancy
  O  O0  1  0.66666667  0.68530000  0.33333333  1
  O  O1  1  0.33333333  0.01863333  0.66666667  1
  O  O2  1  0.00000000  0.35196667  0.00000000  1
  O  O3  1  0.31470000  0.98136667  0.33333333  1
  O  O4  1  0.98136667  0.31470000  0.66666667  1
  O  O5  1  0.64803333  0.64803333  0.00000000  1
  O  O6  1  0.01863333  0.33333333  0.33333333  1
  O  O7  1  0.68530000  0.66666667  0.66666667  1
  O  O8  1  0.35196667  0.00000000  0.00000000  1
  O  O9  1  0.31470000  0.33333333  0.33333333  1
  O  O10  1  0.98136667  0.66666667  0.66666667  1
  O  O11  1  0.64803333  0.00000000  0.00000000  1
  O  O12  1  0.01863333  0.68530000  0.33333333  1
  O  O13  1  0.68530000  0.01863333  0.66666667  1
  O  O14  1  0.35196667  0.35196667  0.00000000  1
  O  O15  1  0.66666667  0.98136667  0.33333333  1
  O  O16  1  0.33333333  0.31470000  0.66666667  1
  O  O17  1  0.00000000  0.64803333  0.00000000  1
  O  O18  1  0.87120000  0.74230000  0.29550000  1
  O  O19  1  0.53786667  0.07563333  0.62883333  1
  O  O20  1  0.20453333  0.40896667  0.96216667  1
  O  O21  1  0.25770000  0.12890000  0.29550000  1
  O  O22  1  0.92436667  0.46223333  0.62883333  1
  O  O23  1  0.59103333  0.79556667  0.96216667  1
  O  O24  1  0.87110000  0.12880000  0.29550000  1
  O  O25  1  0.53776667  0.46213333  0.62883333  1
  O  O26  1  0.20443333  0.79546667  0.96216667  1
  O  O27  1  0.92436667  0.46213333  0.62883333  1
  O  O28  1  0.53786667  0.46223333  0.62883333  1
  O  O29  1  0.12880000  0.25770000  0.70450000  1
  O  O30  1  0.79546667  0.59103333  0.03783333  1
  O  O31  1  0.46213333  0.92436667  0.37116667  1
  O  O32  1  0.74230000  0.87110000  0.70450000  1
  O  O33  1  0.40896667  0.20443333  0.03783333  1
  O  O34  1  0.07563333  0.53776667  0.37116667  1
  O  O35  1  0.12890000  0.87120000  0.70450000  1
  O  O36  1  0.79556667  0.20453333  0.03783333  1
  O  O37  1  0.46223333  0.53786667  0.37116667  1
  O  O38  1  0.46223333  0.92436667  0.37116667  1
  O  O39  1  0.46213333  0.53776667  0.37116667  1
  O  O40  1  0.68560000  0.70370000  0.24780000  1
  O  O41  1  0.35226667  0.03703333  0.58113333  1
  O  O42  1  0.01893333  0.37036667  0.91446667  1
  O  O43  1  0.29630000  0.98190000  0.24780000  1
  O  O44  1  0.96296667  0.31523333  0.58113333  1
  O  O45  1  0.62963333  0.64856667  0.91446667  1
  O  O46  1  0.01810000  0.31440000  0.24780000  1
  O  O47  1  0.68476667  0.64773333  0.58113333  1
  O  O48  1  0.35143333  0.98106667  0.91446667  1
  O  O49  1  0.29630000  0.31440000  0.24780000  1
  O  O50  1  0.96296667  0.64773333  0.58113333  1
  O  O51  1  0.62963333  0.98106667  0.91446667  1
  O  O52  1  0.01810000  0.70370000  0.24780000  1
  O  O53  1  0.68476667  0.03703333  0.58113333  1
  O  O54  1  0.35143333  0.37036667  0.91446667  1
  O  O55  1  0.68560000  0.98190000  0.24780000  1
  O  O56  1  0.35226667  0.31523333  0.58113333  1
  O  O57  1  0.01893333  0.64856667  0.91446667  1
  O  O58  1  0.31440000  0.29630000  0.75220000  1
  O  O59  1  0.98106667  0.62963333  0.08553333  1
  O  O60  1  0.64773333  0.96296667  0.41886667  1
  O  O61  1  0.70370000  0.01810000  0.75220000  1
  O  O62  1  0.37036667  0.35143333  0.08553333  1
  O  O63  1  0.03703333  0.68476667  0.41886667  1
  O  O64  1  0.98190000  0.68560000  0.75220000  1
  O  O65  1  0.64856667  0.01893333  0.08553333  1
  O  O66  1  0.31523333  0.35226667  0.41886667  1
  O  O67  1  0.70370000  0.68560000  0.75220000  1
  O  O68  1  0.37036667  0.01893333  0.08553333  1
  O  O69  1  0.03703333  0.35226667  0.41886667  1
  O  O70  1  0.98190000  0.29630000  0.75220000  1
  O  O71  1  0.64856667  0.62963333  0.08553333  1
  O  O72  1  0.31523333  0.96296667  0.41886667  1
  O  O73  1  0.31440000  0.01810000  0.75220000  1
  O  O74  1  0.98106667  0.35143333  0.08553333  1
  O  O75  1  0.64773333  0.68476667  0.41886667  1
  O  O76  1  0.79470000  0.89740000  0.29670000  1
  O  O77  1  0.46136667  0.23073333  0.63003333  1
  O  O78  1  0.12803333  0.56406667  0.96336667  1
  O  O79  1  0.10260000  0.89730000  0.29670000  1
  O  O80  1  0.76926667  0.23063333  0.63003333  1
  O  O81  1  0.43593333  0.56396667  0.96336667  1
  O  O82  1  0.10270000  0.20530000  0.29670000  1
  O  O83  1  0.76936667  0.53863333  0.63003333  1
  O  O84  1  0.43603333  0.87196667  0.96336667  1
  O  O85  1  0.76926667  0.53863333  0.63003333  1
  O  O86  1  0.76936667  0.23073333  0.63003333  1
  O  O87  1  0.43603333  0.56406667  0.96336667  1
  O  O88  1  0.12803333  0.56396667  0.96336667  1
  O  O89  1  0.20530000  0.10260000  0.70330000  1
  O  O90  1  0.87196667  0.43593333  0.03663333  1
  O  O91  1  0.53863333  0.76926667  0.36996667  1
  O  O92  1  0.89740000  0.10270000  0.70330000  1
  O  O93  1  0.56406667  0.43603333  0.03663333  1
  O  O94  1  0.23073333  0.76936667  0.36996667  1
  O  O95  1  0.89730000  0.79470000  0.70330000  1
  O  O96  1  0.56396667  0.12803333  0.03663333  1
  O  O97  1  0.23063333  0.46136667  0.36996667  1
  O  O98  1  0.56406667  0.12803333  0.03663333  1
  O  O99  1  0.56396667  0.43593333  0.03663333  1
  O  O100  1  0.23063333  0.76926667  0.36996667  1
  O  O101  1  0.53863333  0.76936667  0.36996667  1
  O  O102  1  0.60790000  0.94120000  0.16670000  1
  O  O103  1  0.27456667  0.27453333  0.50003333  1
  O  O104  1  0.94123333  0.60786667  0.83336667  1
  O  O105  1  0.05880000  0.66670000  0.16670000  1
  O  O106  1  0.72546667  0.00003333  0.50003333  1
  O  O107  1  0.39213333  0.33336667  0.83336667  1
  O  O108  1  0.33330000  0.39210000  0.16670000  1
  O  O109  1  0.99996667  0.72543333  0.50003333  1
  O  O110  1  0.66663333  0.05876667  0.83336667  1
  O  O111  1  0.05880000  0.39210000  0.16670000  1
  O  O112  1  0.72546667  0.72543333  0.50003333  1
  O  O113  1  0.39213333  0.05876667  0.83336667  1
  O  O114  1  0.33330000  0.94120000  0.16670000  1
  O  O115  1  0.99996667  0.27453333  0.50003333  1
  O  O116  1  0.66663333  0.60786667  0.83336667  1
  O  O117  1  0.60790000  0.66670000  0.16670000  1
  O  O118  1  0.27456667  0.00003333  0.50003333  1
  O  O119  1  0.94123333  0.33336667  0.83336667  1
  O  O120  1  0.46420000  0.92830000  0.23020000  1
  O  O121  1  0.13086667  0.26163333  0.56353333  1
  O  O122  1  0.79753333  0.59496667  0.89686667  1
  O  O123  1  0.07170000  0.53590000  0.23020000  1
  O  O124  1  0.73836667  0.86923333  0.56353333  1
  O  O125  1  0.40503333  0.20256667  0.89686667  1
  O  O126  1  0.46410000  0.53580000  0.23020000  1
  O  O127  1  0.13076667  0.86913333  0.56353333  1
  O  O128  1  0.79743333  0.20246667  0.89686667  1
  O  O129  1  0.53580000  0.07170000  0.76980000  1
  O  O130  1  0.20246667  0.40503333  0.10313333  1
  O  O131  1  0.86913333  0.73836667  0.43646667  1
  O  O132  1  0.92830000  0.46410000  0.76980000  1
  O  O133  1  0.59496667  0.79743333  0.10313333  1
  O  O134  1  0.26163333  0.13076667  0.43646667  1
  O  O135  1  0.53590000  0.46420000  0.76980000  1
  O  O136  1  0.20256667  0.79753333  0.10313333  1
  O  O137  1  0.86923333  0.13086667  0.43646667  1
  O  O138  1  0.52710000  0.76350000  0.22300000  1
  O  O139  1  0.19376667  0.09683333  0.55633333  1
  O  O140  1  0.86043333  0.43016667  0.88966667  1
  O  O141  1  0.23650000  0.76360000  0.22300000  1
  O  O142  1  0.90316667  0.09693333  0.55633333  1
  O  O143  1  0.56983333  0.43026667  0.88966667  1
  O  O144  1  0.23640000  0.47290000  0.22300000  1
  O  O145  1  0.90306667  0.80623333  0.55633333  1
  O  O146  1  0.56973333  0.13956667  0.88966667  1
  O  O147  1  0.23650000  0.47290000  0.22300000  1
  O  O148  1  0.90316667  0.80623333  0.55633333  1
  O  O149  1  0.56983333  0.13956667  0.88966667  1
  O  O150  1  0.23640000  0.76350000  0.22300000  1
  O  O151  1  0.90306667  0.09683333  0.55633333  1
  O  O152  1  0.56973333  0.43016667  0.88966667  1
  O  O153  1  0.52710000  0.76360000  0.22300000  1
  O  O154  1  0.19376667  0.09693333  0.55633333  1
  O  O155  1  0.86043333  0.43026667  0.88966667  1
  O  O156  1  0.47290000  0.23650000  0.77700000  1
  O  O157  1  0.13956667  0.56983333  0.11033333  1
  O  O158  1  0.80623333  0.90316667  0.44366667  1
  O  O159  1  0.76350000  0.23640000  0.77700000  1
  O  O160  1  0.43016667  0.56973333  0.11033333  1
  O  O161  1  0.09683333  0.90306667  0.44366667  1
  O  O162  1  0.76360000  0.52710000  0.77700000  1
  O  O163  1  0.43026667  0.86043333  0.11033333  1
  O  O164  1  0.09693333  0.19376667  0.44366667  1
  O  O165  1  0.76350000  0.52710000  0.77700000  1
  O  O166  1  0.43016667  0.86043333  0.11033333  1
  O  O167  1  0.09683333  0.19376667  0.44366667  1
  O  O168  1  0.76360000  0.23650000  0.77700000  1
  O  O169  1  0.43026667  0.56983333  0.11033333  1
  O  O170  1  0.09693333  0.90316667  0.44366667  1
  O  O171  1  0.47290000  0.23640000  0.77700000  1
  O  O172  1  0.13956667  0.56973333  0.11033333  1
  O  O173  1  0.80623333  0.90306667  0.44366667  1
