# generated using pymatgen
data_SiO4
_symmetry_space_group_name_H-M   'P 1'
_cell_length_a   17.52300000
_cell_length_b   17.64400000
_cell_length_c   7.40100000
_cell_angle_alpha   90.00000000
_cell_angle_beta   116.10400000
_cell_angle_gamma   90.00000000
_symmetry_Int_Tables_number   1
_chemical_formula_structural   SiO4
_chemical_formula_sum   'Si1 O4'
_cell_volume   2054.80556086
_cell_formula_units_Z   1
loop_
 _symmetry_equiv_pos_site_id
 _symmetry_equiv_pos_as_xyz
  1  'x, y, z'
loop_
 _atom_site_type_symbol
 _atom_site_label
 _atom_site_symmetry_multiplicity
 _atom_site_fract_x
 _atom_site_fract_y
 _atom_site_fract_z
 _atom_site_occupancy
  Si  Si0  1  0.68090000  0.33140000  0.10540000  1
  O  O1  1  0.58300000  0.33750000  0.06510000  1
  O  O2  1  0.73540000  0.39610000  0.26260000  1
  O  O3  1  0.68750000  0.34280000  -0.10320000  1
  O  O4  1  0.71760000  0.24930000  0.19740000  1
