# generated using pymatgen
data_Si
_symmetry_space_group_name_H-M   'P 1'
_cell_length_a   17.52300000
_cell_length_b   17.64400000
_cell_length_c   7.40100000
_cell_angle_alpha   90.00000000
_cell_angle_beta   116.10400000
_cell_angle_gamma   90.00000000
_symmetry_Int_Tables_number   1
_chemical_formula_structural   Si
_chemical_formula_sum   Si36
_cell_volume   2054.80556086
_cell_formula_units_Z   36
loop_
 _symmetry_equiv_pos_site_id
 _symmetry_equiv_pos_as_xyz
  1  'x, y, z'
loop_
 _atom_site_type_symbol
 _atom_site_label
 _atom_site_symmetry_multiplicity
 _atom_site_fract_x
 _atom_site_fract_y
 _atom_site_fract_z
 _atom_site_occupancy
  Si  Si0  1  0.18090000  0.16860000  0.10540000  1
  Si  Si1  1  0.68090000  0.66860000  0.10540000  1
  Si  Si2  1  0.81910000  0.16860000  0.89460000  1
  Si  Si3  1  0.31910000  0.66860000  0.89460000  1
  Si  Si4  1  0.81910000  0.83140000  0.89460000  1
  Si  Si5  1  0.31910000  0.33140000  0.89460000  1
  Si  Si6  1  0.18090000  0.83140000  0.10540000  1
  Si  Si7  1  0.68090000  0.33140000  0.10540000  1
  Si  Si8  1  0.21400000  0.41070000  0.49880000  1
  Si  Si9  1  0.71400000  0.91070000  0.49880000  1
  Si  Si10  1  0.78600000  0.41070000  0.50120000  1
  Si  Si11  1  0.28600000  0.91070000  0.50120000  1
  Si  Si12  1  0.78600000  0.58930000  0.50120000  1
  Si  Si13  1  0.28600000  0.08930000  0.50120000  1
  Si  Si14  1  0.21400000  0.58930000  0.49880000  1
  Si  Si15  1  0.71400000  0.08930000  0.49880000  1
  Si  Si16  1  0.20530000  0.18930000  0.71550000  1
  Si  Si17  1  0.70530000  0.68930000  0.71550000  1
  Si  Si18  1  0.79470000  0.18930000  0.28450000  1
  Si  Si19  1  0.29470000  0.68930000  0.28450000  1
  Si  Si20  1  0.79470000  0.81070000  0.28450000  1
  Si  Si21  1  0.29470000  0.31070000  0.28450000  1
  Si  Si22  1  0.20530000  0.81070000  0.71550000  1
  Si  Si23  1  0.70530000  0.31070000  0.71550000  1
  Si  Si24  1  0.06410000  0.29810000  0.41280000  1
  Si  Si25  1  0.56410000  0.79810000  0.41280000  1
  Si  Si26  1  0.93590000  0.29810000  0.58720000  1
  Si  Si27  1  0.43590000  0.79810000  0.58720000  1
  Si  Si28  1  0.93590000  0.70190000  0.58720000  1
  Si  Si29  1  0.43590000  0.20190000  0.58720000  1
  Si  Si30  1  0.06410000  0.70190000  0.41280000  1
  Si  Si31  1  0.56410000  0.20190000  0.41280000  1
  Si  Si32  1  0.00000000  0.21510000  0.00000000  1
  Si  Si33  1  0.50000000  0.71510000  0.00000000  1
  Si  Si34  1  0.00000000  0.78490000  0.00000000  1
  Si  Si35  1  0.50000000  0.28490000  0.00000000  1
