# generated using pymatgen
data_O2
_symmetry_space_group_name_H-M   'P 1'
_cell_length_a   17.52300000
_cell_length_b   17.64400000
_cell_length_c   7.40100000
_cell_angle_alpha   90.00000000
_cell_angle_beta   116.10400000
_cell_angle_gamma   90.00000000
_symmetry_Int_Tables_number   1
_chemical_formula_structural   O2
_chemical_formula_sum   O72
_cell_volume   2054.80556086
_cell_formula_units_Z   36
loop_
 _symmetry_equiv_pos_site_id
 _symmetry_equiv_pos_as_xyz
  1  'x, y, z'
loop_
 _atom_site_type_symbol
 _atom_site_label
 _atom_site_symmetry_multiplicity
 _atom_site_fract_x
 _atom_site_fract_y
 _atom_site_fract_z
 _atom_site_occupancy
  O  O0  1  0.08300000  0.16250000  0.06510000  1
  O  O1  1  0.58300000  0.66250000  0.06510000  1
  O  O2  1  0.91700000  0.16250000  0.93490000  1
  O  O3  1  0.41700000  0.66250000  0.93490000  1
  O  O4  1  0.91700000  0.83750000  0.93490000  1
  O  O5  1  0.41700000  0.33750000  0.93490000  1
  O  O6  1  0.08300000  0.83750000  0.06510000  1
  O  O7  1  0.58300000  0.33750000  0.06510000  1
  O  O8  1  0.23540000  0.10390000  0.26260000  1
  O  O9  1  0.73540000  0.60390000  0.26260000  1
  O  O10  1  0.76460000  0.10390000  0.73740000  1
  O  O11  1  0.26460000  0.60390000  0.73740000  1
  O  O12  1  0.76460000  0.89610000  0.73740000  1
  O  O13  1  0.26460000  0.39610000  0.73740000  1
  O  O14  1  0.23540000  0.89610000  0.26260000  1
  O  O15  1  0.73540000  0.39610000  0.26260000  1
  O  O16  1  0.18750000  0.15720000  0.89680000  1
  O  O17  1  0.68750000  0.65720000  0.89680000  1
  O  O18  1  0.81250000  0.15720000  0.10320000  1
  O  O19  1  0.31250000  0.65720000  0.10320000  1
  O  O20  1  0.81250000  0.84280000  0.10320000  1
  O  O21  1  0.31250000  0.34280000  0.10320000  1
  O  O22  1  0.18750000  0.84280000  0.89680000  1
  O  O23  1  0.68750000  0.34280000  0.89680000  1
  O  O24  1  0.21760000  0.25070000  0.19740000  1
  O  O25  1  0.71760000  0.75070000  0.19740000  1
  O  O26  1  0.78240000  0.25070000  0.80260000  1
  O  O27  1  0.28240000  0.75070000  0.80260000  1
  O  O28  1  0.78240000  0.74930000  0.80260000  1
  O  O29  1  0.28240000  0.24930000  0.80260000  1
  O  O30  1  0.21760000  0.74930000  0.19740000  1
  O  O31  1  0.71760000  0.24930000  0.19740000  1
  O  O32  1  0.12450000  0.36650000  0.41130000  1
  O  O33  1  0.62450000  0.86650000  0.41130000  1
  O  O34  1  0.87550000  0.36650000  0.58870000  1
  O  O35  1  0.37550000  0.86650000  0.58870000  1
  O  O36  1  0.87550000  0.63350000  0.58870000  1
  O  O37  1  0.37550000  0.13350000  0.58870000  1
  O  O38  1  0.12450000  0.63350000  0.41130000  1
  O  O39  1  0.62450000  0.13350000  0.41130000  1
  O  O40  1  0.19690000  0.50000000  0.45600000  1
  O  O41  1  0.69690000  0.00000000  0.45600000  1
  O  O42  1  0.80310000  0.50000000  0.54400000  1
  O  O43  1  0.30310000  0.00000000  0.54400000  1
  O  O44  1  0.26970000  0.37990000  0.38980000  1
  O  O45  1  0.76970000  0.87990000  0.38980000  1
  O  O46  1  0.73030000  0.37990000  0.61020000  1
  O  O47  1  0.23030000  0.87990000  0.61020000  1
  O  O48  1  0.73030000  0.62010000  0.61020000  1
  O  O49  1  0.23030000  0.12010000  0.61020000  1
  O  O50  1  0.26970000  0.62010000  0.38980000  1
  O  O51  1  0.76970000  0.12010000  0.38980000  1
  O  O52  1  0.12120000  0.23030000  0.55210000  1
  O  O53  1  0.62120000  0.73030000  0.55210000  1
  O  O54  1  0.87880000  0.23030000  0.44790000  1
  O  O55  1  0.37880000  0.73030000  0.44790000  1
  O  O56  1  0.87880000  0.76970000  0.44790000  1
  O  O57  1  0.37880000  0.26970000  0.44790000  1
  O  O58  1  0.12120000  0.76970000  0.55210000  1
  O  O59  1  0.62120000  0.26970000  0.55210000  1
  O  O60  1  0.00000000  0.32800000  0.50000000  1
  O  O61  1  0.50000000  0.82800000  0.50000000  1
  O  O62  1  0.00000000  0.67200000  0.50000000  1
  O  O63  1  0.50000000  0.17200000  0.50000000  1
  O  O64  1  0.00990000  0.26780000  0.18660000  1
  O  O65  1  0.50990000  0.76780000  0.18660000  1
  O  O66  1  0.99010000  0.26780000  0.81340000  1
  O  O67  1  0.49010000  0.76780000  0.81340000  1
  O  O68  1  0.99010000  0.73220000  0.81340000  1
  O  O69  1  0.49010000  0.23220000  0.81340000  1
  O  O70  1  0.00990000  0.73220000  0.18660000  1
  O  O71  1  0.50990000  0.23220000  0.18660000  1
