# generated using pymatgen
data_SiO4
_symmetry_space_group_name_H-M   'P 1'
_cell_length_a   7.54300000
_cell_length_b   14.38800000
_cell_length_c   19.01600000
_cell_angle_alpha   90.00000000
_cell_angle_beta   90.00000000
_cell_angle_gamma   90.00000000
_symmetry_Int_Tables_number   1
_chemical_formula_structural   SiO4
_chemical_formula_sum   'Si1 O4'
_cell_volume   2063.78145494
_cell_formula_units_Z   1
loop_
 _symmetry_equiv_pos_site_id
 _symmetry_equiv_pos_as_xyz
  1  'x, y, z'
loop_
 _atom_site_type_symbol
 _atom_site_label
 _atom_site_symmetry_multiplicity
 _atom_site_fract_x
 _atom_site_fract_y
 _atom_site_fract_z
 _atom_site_occupancy
  Si  Si0  1  0.29360000  0.50000000  0.98730000  1
  O  O1  1  0.25100000  0.59140000  1.03320000  1
  O  O2  1  0.25100000  0.40860000  1.03320000  1
  O  O3  1  0.50000000  0.50000000  0.96570000  1
  O  O4  1  0.17420000  0.50000000  0.91720000  1
