# generated using pymatgen
data_SiO4
_symmetry_space_group_name_H-M   'P 1'
_cell_length_a   7.54300000
_cell_length_b   14.38800000
_cell_length_c   19.01600000
_cell_angle_alpha   90.00000000
_cell_angle_beta   90.00000000
_cell_angle_gamma   90.00000000
_symmetry_Int_Tables_number   1
_chemical_formula_structural   SiO4
_chemical_formula_sum   'Si1 O4'
_cell_volume   2063.78145494
_cell_formula_units_Z   1
loop_
 _symmetry_equiv_pos_site_id
 _symmetry_equiv_pos_as_xyz
  1  'x, y, z'
loop_
 _atom_site_type_symbol
 _atom_site_label
 _atom_site_symmetry_multiplicity
 _atom_site_fract_x
 _atom_site_fract_y
 _atom_site_fract_z
 _atom_site_occupancy
  Si  Si0  1  0.20630000  0.80320000  0.18480000  1
  O  O1  1  0.32580000  0.77700000  0.25210000  1
  O  O2  1  0.25060000  0.73320000  0.12120000  1
  O  O3  1  0.00000000  0.79430000  0.20540000  1
  O  O4  1  0.24890000  0.90850000  0.16190000  1
