# generated using pymatgen
data_Si
_symmetry_space_group_name_H-M   'P 1'
_cell_length_a   7.54300000
_cell_length_b   14.38800000
_cell_length_c   19.01600000
_cell_angle_alpha   90.00000000
_cell_angle_beta   90.00000000
_cell_angle_gamma   90.00000000
_symmetry_Int_Tables_number   1
_chemical_formula_structural   Si
_chemical_formula_sum   Si36
_cell_volume   2063.78145494
_cell_formula_units_Z   36
loop_
 _symmetry_equiv_pos_site_id
 _symmetry_equiv_pos_as_xyz
  1  'x, y, z'
loop_
 _atom_site_type_symbol
 _atom_site_label
 _atom_site_symmetry_multiplicity
 _atom_site_fract_x
 _atom_site_fract_y
 _atom_site_fract_z
 _atom_site_occupancy
  Si  Si0  1  0.20630000  0.19680000  0.18480000  1
  Si  Si1  1  0.70630000  0.69680000  0.68480000  1
  Si  Si2  1  0.79370000  0.19680000  0.18480000  1
  Si  Si3  1  0.29370000  0.69680000  0.68480000  1
  Si  Si4  1  0.20630000  0.80320000  0.18480000  1
  Si  Si5  1  0.70630000  0.30320000  0.68480000  1
  Si  Si6  1  0.79370000  0.80320000  0.18480000  1
  Si  Si7  1  0.29370000  0.30320000  0.68480000  1
  Si  Si8  1  0.29370000  0.70040000  0.04210000  1
  Si  Si9  1  0.79370000  0.20040000  0.54210000  1
  Si  Si10  1  0.70630000  0.70040000  0.04210000  1
  Si  Si11  1  0.20630000  0.20040000  0.54210000  1
  Si  Si12  1  0.29370000  0.29960000  0.04210000  1
  Si  Si13  1  0.79370000  0.79960000  0.54210000  1
  Si  Si14  1  0.70630000  0.29960000  0.04210000  1
  Si  Si15  1  0.20630000  0.79960000  0.54210000  1
  Si  Si16  1  0.00000000  0.20320000  0.94820000  1
  Si  Si17  1  0.50000000  0.70320000  0.44820000  1
  Si  Si18  1  0.00000000  0.79680000  0.94820000  1
  Si  Si19  1  0.50000000  0.29680000  0.44820000  1
  Si  Si20  1  0.00000000  0.69930000  0.79770000  1
  Si  Si21  1  0.50000000  0.19930000  0.29770000  1
  Si  Si22  1  0.00000000  0.30070000  0.79770000  1
  Si  Si23  1  0.50000000  0.80070000  0.29770000  1
  Si  Si24  1  0.29350000  0.00000000  0.11660000  1
  Si  Si25  1  0.79350000  0.50000000  0.61660000  1
  Si  Si26  1  0.70650000  0.00000000  0.11660000  1
  Si  Si27  1  0.20650000  0.50000000  0.61660000  1
  Si  Si28  1  0.29360000  0.50000000  0.98730000  1
  Si  Si29  1  0.79360000  0.00000000  0.48730000  1
  Si  Si30  1  0.70640000  0.50000000  0.98730000  1
  Si  Si31  1  0.20640000  0.00000000  0.48730000  1
  Si  Si32  1  0.00000000  0.50000000  0.86830000  1
  Si  Si33  1  0.50000000  0.00000000  0.36830000  1
  Si  Si34  1  0.00000000  0.00000000  0.99780000  1
  Si  Si35  1  0.50000000  0.50000000  0.49780000  1
