# generated using pymatgen
data_O2
_symmetry_space_group_name_H-M   'P 1'
_cell_length_a   7.54300000
_cell_length_b   14.38800000
_cell_length_c   19.01600000
_cell_angle_alpha   90.00000000
_cell_angle_beta   90.00000000
_cell_angle_gamma   90.00000000
_symmetry_Int_Tables_number   1
_chemical_formula_structural   O2
_chemical_formula_sum   O72
_cell_volume   2063.78145494
_cell_formula_units_Z   36
loop_
 _symmetry_equiv_pos_site_id
 _symmetry_equiv_pos_as_xyz
  1  'x, y, z'
loop_
 _atom_site_type_symbol
 _atom_site_label
 _atom_site_symmetry_multiplicity
 _atom_site_fract_x
 _atom_site_fract_y
 _atom_site_fract_z
 _atom_site_occupancy
  O  O0  1  0.32580000  0.22300000  0.25210000  1
  O  O1  1  0.82580000  0.72300000  0.75210000  1
  O  O2  1  0.67420000  0.22300000  0.25210000  1
  O  O3  1  0.17420000  0.72300000  0.75210000  1
  O  O4  1  0.32580000  0.77700000  0.25210000  1
  O  O5  1  0.82580000  0.27700000  0.75210000  1
  O  O6  1  0.67420000  0.77700000  0.25210000  1
  O  O7  1  0.17420000  0.27700000  0.75210000  1
  O  O8  1  0.25060000  0.26680000  0.12120000  1
  O  O9  1  0.75060000  0.76680000  0.62120000  1
  O  O10  1  0.74940000  0.26680000  0.12120000  1
  O  O11  1  0.24940000  0.76680000  0.62120000  1
  O  O12  1  0.25060000  0.73320000  0.12120000  1
  O  O13  1  0.75060000  0.23320000  0.62120000  1
  O  O14  1  0.74940000  0.73320000  0.12120000  1
  O  O15  1  0.24940000  0.23320000  0.62120000  1
  O  O16  1  0.00000000  0.20570000  0.20540000  1
  O  O17  1  0.50000000  0.70570000  0.70540000  1
  O  O18  1  0.00000000  0.79430000  0.20540000  1
  O  O19  1  0.50000000  0.29430000  0.70540000  1
  O  O20  1  0.24890000  0.09150000  0.16190000  1
  O  O21  1  0.74890000  0.59150000  0.66190000  1
  O  O22  1  0.75110000  0.09150000  0.16190000  1
  O  O23  1  0.25110000  0.59150000  0.66190000  1
  O  O24  1  0.24890000  0.90850000  0.16190000  1
  O  O25  1  0.74890000  0.40850000  0.66190000  1
  O  O26  1  0.75110000  0.90850000  0.16190000  1
  O  O27  1  0.25110000  0.40850000  0.66190000  1
  O  O28  1  0.25100000  0.59140000  0.03320000  1
  O  O29  1  0.75100000  0.09140000  0.53320000  1
  O  O30  1  0.74900000  0.59140000  0.03320000  1
  O  O31  1  0.24900000  0.09140000  0.53320000  1
  O  O32  1  0.25100000  0.40860000  0.03320000  1
  O  O33  1  0.75100000  0.90860000  0.53320000  1
  O  O34  1  0.74900000  0.40860000  0.03320000  1
  O  O35  1  0.24900000  0.90860000  0.53320000  1
  O  O36  1  0.17440000  0.75910000  0.98770000  1
  O  O37  1  0.67440000  0.25910000  0.48770000  1
  O  O38  1  0.82560000  0.75910000  0.98770000  1
  O  O39  1  0.32560000  0.25910000  0.48770000  1
  O  O40  1  0.17440000  0.24090000  0.98770000  1
  O  O41  1  0.67440000  0.74090000  0.48770000  1
  O  O42  1  0.82560000  0.24090000  0.98770000  1
  O  O43  1  0.32560000  0.74090000  0.48770000  1
  O  O44  1  0.50000000  0.71870000  0.02530000  1
  O  O45  1  0.00000000  0.21870000  0.52530000  1
  O  O46  1  0.50000000  0.28130000  0.02530000  1
  O  O47  1  0.00000000  0.78130000  0.52530000  1
  O  O48  1  0.00000000  0.09130000  0.94890000  1
  O  O49  1  0.50000000  0.59130000  0.44890000  1
  O  O50  1  0.00000000  0.90870000  0.94890000  1
  O  O51  1  0.50000000  0.40870000  0.44890000  1
  O  O52  1  0.00000000  0.23830000  0.86790000  1
  O  O53  1  0.50000000  0.73830000  0.36790000  1
  O  O54  1  0.00000000  0.76170000  0.86790000  1
  O  O55  1  0.50000000  0.26170000  0.36790000  1
  O  O56  1  0.00000000  0.59110000  0.81910000  1
  O  O57  1  0.50000000  0.09110000  0.31910000  1
  O  O58  1  0.00000000  0.40890000  0.81910000  1
  O  O59  1  0.50000000  0.90890000  0.31910000  1
  O  O60  1  0.50000000  0.00000000  0.09530000  1
  O  O61  1  0.00000000  0.50000000  0.59530000  1
  O  O62  1  0.17460000  0.00000000  0.04630000  1
  O  O63  1  0.67460000  0.50000000  0.54630000  1
  O  O64  1  0.82540000  0.00000000  0.04630000  1
  O  O65  1  0.32540000  0.50000000  0.54630000  1
  O  O66  1  0.50000000  0.50000000  0.96570000  1
  O  O67  1  0.00000000  0.00000000  0.46570000  1
  O  O68  1  0.17420000  0.50000000  0.91720000  1
  O  O69  1  0.67420000  0.00000000  0.41720000  1
  O  O70  1  0.82580000  0.50000000  0.91720000  1
  O  O71  1  0.32580000  0.00000000  0.41720000  1
